pcf
* control data
restart estimation
       6    3667       4       0       3 nparsec=0 nequation=0
     1     1   single   point   1   0   0
10.0   2.0    0.3    0.03    10  999
5.0   5.0   1.0e-3
0.1   aui
30   .005  4   4  .005   4
1    1    1
* parameter groups
prcp         relative      1.00000E-02   1.00000E-05  switch       2.0000      outside_pts
evap         relative      1.00000E-02   1.00000E-05  switch       2.0000      outside_pts
soilzone     relative      1.00000E-02   1.00000E-05  switch       2.0000      outside_pts
ssres        relative      1.00000E-02   1.00000E-05  switch       2.0000      outside_pts
* parameter data
jhcoef_fac   log    factor        1.0000       0.75000        1.5000      evap            1.0000        0.0000        1
rnadj_fac    log    factor        1.0000       0.75000        1.5000      prcp            1.0000        0.0000        1
snwadj_fac   log    factor        1.0000       0.75000        1.5000      prcp            1.0000        0.0000        1
pfd_fac      log    factor        1.0000       0.75000        1.5000      soilzone        1.0000        0.0000        1
s2gw_fac     log    factor        1.0000       0.75000        1.5000      ssres           1.0000        0.0000        1
s2gwe_fac    log    factor        1.0000       0.75000        1.5000      ssres           1.0000        0.0000        1
* observation groups
sq6500
esq6500
sim_hyd_indx
* observation data
sq6500_1               6.171428         1.00000      sq6500
sq6500_2               8.812976         1.00000      sq6500
sq6500_3               6.493754         1.00000      sq6500
sq6500_4               3.431591         1.00000      sq6500
sq6500_5               2.558436         1.00000      sq6500
sq6500_6               1.778443         1.00000      sq6500
sq6500_7               2.045011         1.00000      sq6500
sq6500_8               2.318116         1.00000      sq6500
sq6500_9               5.491753         1.00000      sq6500
sq6500_10              7.512886         1.00000      sq6500
sq6500_11              5.590857         1.00000      sq6500
sq6500_12             0.9771047         1.00000      sq6500
sq6500_13             0.5957441         1.00000      sq6500
sq6500_14             0.2716203         1.00000      sq6500
sq6500_15              0.000000         1.00000      sq6500
sq6500_16              0.000000         1.00000      sq6500
sq6500_17              2.533200         1.00000      sq6500
sq6500_18              0.000000         1.00000      sq6500
sq6500_19              0.000000         1.00000      sq6500
sq6500_20              0.000000         1.00000      sq6500
sq6500_21              0.000000         1.00000      sq6500
sq6500_22              0.000000         1.00000      sq6500
sq6500_23              0.000000         1.00000      sq6500
sq6500_24              0.000000         1.00000      sq6500
sq6500_25              0.000000         1.00000      sq6500
sq6500_26              0.000000         1.00000      sq6500
sq6500_27              0.000000         1.00000      sq6500
sq6500_28              0.000000         1.00000      sq6500
sq6500_29              0.000000         1.00000      sq6500
sq6500_30              0.000000         1.00000      sq6500
sq6500_31              0.000000         1.00000      sq6500
sq6500_32              0.000000         1.00000      sq6500
sq6500_33              0.000000         1.00000      sq6500
sq6500_34             0.6406934         1.00000      sq6500
sq6500_35              0.000000         1.00000      sq6500
sq6500_36              2.400162         1.00000      sq6500
sq6500_37              0.000000         1.00000      sq6500
sq6500_38              0.000000         1.00000      sq6500
sq6500_39              0.000000         1.00000      sq6500
sq6500_40              0.000000         1.00000      sq6500
sq6500_41              0.000000         1.00000      sq6500
sq6500_42              0.000000         1.00000      sq6500
sq6500_43              0.000000         1.00000      sq6500
sq6500_44              0.000000         1.00000      sq6500
sq6500_45              0.000000         1.00000      sq6500
sq6500_46              0.000000         1.00000      sq6500
sq6500_47              0.000000         1.00000      sq6500
sq6500_48              0.000000         1.00000      sq6500
sq6500_49              0.000000         1.00000      sq6500
sq6500_50              0.000000         1.00000      sq6500
sq6500_51              1.804347         1.00000      sq6500
sq6500_52              0.000000         1.00000      sq6500
sq6500_53              0.000000         1.00000      sq6500
sq6500_54              0.000000         1.00000      sq6500
sq6500_55              0.000000         1.00000      sq6500
sq6500_56              0.000000         1.00000      sq6500
sq6500_57              6.574790         1.00000      sq6500
sq6500_58              4.147709         1.00000      sq6500
sq6500_59             4.7101974E-03     1.00000      sq6500
sq6500_60              0.000000         1.00000      sq6500
sq6500_61              0.000000         1.00000      sq6500
sq6500_62              0.000000         1.00000      sq6500
sq6500_63              0.000000         1.00000      sq6500
sq6500_64              0.000000         1.00000      sq6500
sq6500_65              0.000000         1.00000      sq6500
sq6500_66              0.000000         1.00000      sq6500
sq6500_67              0.000000         1.00000      sq6500
sq6500_68              0.000000         1.00000      sq6500
sq6500_69              0.000000         1.00000      sq6500
sq6500_70              0.000000         1.00000      sq6500
sq6500_71             0.2992522         1.00000      sq6500
sq6500_72              1.220799         1.00000      sq6500
sq6500_73              2.080593         1.00000      sq6500
sq6500_74             0.9611243         1.00000      sq6500
sq6500_75             0.8968684         1.00000      sq6500
sq6500_76              0.000000         1.00000      sq6500
sq6500_77              0.000000         1.00000      sq6500
sq6500_78             0.9514132         1.00000      sq6500
sq6500_79              0.000000         1.00000      sq6500
sq6500_80              0.000000         1.00000      sq6500
sq6500_81             0.9534868         1.00000      sq6500
sq6500_82              0.000000         1.00000      sq6500
sq6500_83              0.000000         1.00000      sq6500
sq6500_84              0.000000         1.00000      sq6500
sq6500_85              0.000000         1.00000      sq6500
sq6500_86              0.000000         1.00000      sq6500
sq6500_87              0.000000         1.00000      sq6500
sq6500_88             0.3806194         1.00000      sq6500
sq6500_89              0.000000         1.00000      sq6500
sq6500_90              0.000000         1.00000      sq6500
sq6500_91              0.000000         1.00000      sq6500
sq6500_92              0.000000         1.00000      sq6500
sq6500_93              0.000000         1.00000      sq6500
sq6500_94              0.000000         1.00000      sq6500
sq6500_95              0.000000         1.00000      sq6500
sq6500_96              0.000000         1.00000      sq6500
sq6500_97             3.2600045E-02     1.00000      sq6500
sq6500_98             0.9696224         1.00000      sq6500
sq6500_99              0.000000         1.00000      sq6500
sq6500_100             0.000000         1.00000      sq6500
sq6500_101             0.000000         1.00000      sq6500
sq6500_102             0.000000         1.00000      sq6500
sq6500_103             0.000000         1.00000      sq6500
sq6500_104             0.000000         1.00000      sq6500
sq6500_105             0.000000         1.00000      sq6500
sq6500_106            0.7288953         1.00000      sq6500
sq6500_107             0.000000         1.00000      sq6500
sq6500_108             0.000000         1.00000      sq6500
sq6500_109             0.000000         1.00000      sq6500
sq6500_110             0.000000         1.00000      sq6500
sq6500_111             0.000000         1.00000      sq6500
sq6500_112             0.000000         1.00000      sq6500
sq6500_113             0.000000         1.00000      sq6500
sq6500_114             0.000000         1.00000      sq6500
sq6500_115             0.000000         1.00000      sq6500
sq6500_116             0.000000         1.00000      sq6500
sq6500_117             0.000000         1.00000      sq6500
sq6500_118             0.000000         1.00000      sq6500
sq6500_119             0.000000         1.00000      sq6500
sq6500_120             0.000000         1.00000      sq6500
sq6500_121             0.000000         1.00000      sq6500
sq6500_122             0.000000         1.00000      sq6500
sq6500_123             0.000000         1.00000      sq6500
sq6500_124             0.000000         1.00000      sq6500
sq6500_125             0.000000         1.00000      sq6500
sq6500_126             0.000000         1.00000      sq6500
sq6500_127             0.000000         1.00000      sq6500
sq6500_128             0.000000         1.00000      sq6500
sq6500_129             0.000000         1.00000      sq6500
sq6500_130             3.168317         1.00000      sq6500
sq6500_131             2.502778         1.00000      sq6500
sq6500_132             1.887157         1.00000      sq6500
sq6500_133             0.000000         1.00000      sq6500
sq6500_134             0.000000         1.00000      sq6500
sq6500_135             0.000000         1.00000      sq6500
sq6500_136             0.000000         1.00000      sq6500
sq6500_137             0.000000         1.00000      sq6500
sq6500_138             0.000000         1.00000      sq6500
sq6500_139             0.000000         1.00000      sq6500
sq6500_140             0.000000         1.00000      sq6500
sq6500_141             0.000000         1.00000      sq6500
sq6500_142             0.000000         1.00000      sq6500
sq6500_143             2.727338         1.00000      sq6500
sq6500_144             16.10007         1.00000      sq6500
sq6500_145             4.438753         1.00000      sq6500
sq6500_146             0.000000         1.00000      sq6500
sq6500_147             0.000000         1.00000      sq6500
sq6500_148             0.000000         1.00000      sq6500
sq6500_149             0.000000         1.00000      sq6500
sq6500_150             0.000000         1.00000      sq6500
sq6500_151             32.03540         1.00000      sq6500
sq6500_152             177.0669         1.00000      sq6500
sq6500_153             11.51779         1.00000      sq6500
sq6500_154             0.000000         1.00000      sq6500
sq6500_155             0.000000         1.00000      sq6500
sq6500_156             12.85500         1.00000      sq6500
sq6500_157             0.000000         1.00000      sq6500
sq6500_158             0.000000         1.00000      sq6500
sq6500_159             0.000000         1.00000      sq6500
sq6500_160             0.000000         1.00000      sq6500
sq6500_161             0.000000         1.00000      sq6500
sq6500_162             0.000000         1.00000      sq6500
sq6500_163             0.000000         1.00000      sq6500
sq6500_164             0.000000         1.00000      sq6500
sq6500_165             0.000000         1.00000      sq6500
sq6500_166             0.000000         1.00000      sq6500
sq6500_167             0.000000         1.00000      sq6500
sq6500_168             0.000000         1.00000      sq6500
sq6500_169             0.000000         1.00000      sq6500
sq6500_170             0.000000         1.00000      sq6500
sq6500_171             0.000000         1.00000      sq6500
sq6500_172             0.000000         1.00000      sq6500
sq6500_173             20.42055         1.00000      sq6500
sq6500_174            0.4446049         1.00000      sq6500
sq6500_175             0.000000         1.00000      sq6500
sq6500_176             0.000000         1.00000      sq6500
sq6500_177             19.81820         1.00000      sq6500
sq6500_178             5.734244         1.00000      sq6500
sq6500_179             0.000000         1.00000      sq6500
sq6500_180             0.000000         1.00000      sq6500
sq6500_181             0.000000         1.00000      sq6500
sq6500_182             0.000000         1.00000      sq6500
sq6500_183             0.000000         1.00000      sq6500
sq6500_184             0.000000         1.00000      sq6500
sq6500_185             0.000000         1.00000      sq6500
sq6500_186             0.000000         1.00000      sq6500
sq6500_187             0.000000         1.00000      sq6500
sq6500_188             0.000000         1.00000      sq6500
sq6500_189             0.000000         1.00000      sq6500
sq6500_190             22.45663         1.00000      sq6500
sq6500_191             11.20463         1.00000      sq6500
sq6500_192             0.000000         1.00000      sq6500
sq6500_193             18.38023         1.00000      sq6500
sq6500_194             81.71228         1.00000      sq6500
sq6500_195             80.03304         1.00000      sq6500
sq6500_196             34.63280         1.00000      sq6500
sq6500_197             7.352802         1.00000      sq6500
sq6500_198             0.000000         1.00000      sq6500
sq6500_199             0.000000         1.00000      sq6500
sq6500_200             0.000000         1.00000      sq6500
sq6500_201             0.000000         1.00000      sq6500
sq6500_202             0.000000         1.00000      sq6500
sq6500_203             0.000000         1.00000      sq6500
sq6500_204             0.000000         1.00000      sq6500
sq6500_205             0.000000         1.00000      sq6500
sq6500_206             0.000000         1.00000      sq6500
sq6500_207             0.000000         1.00000      sq6500
sq6500_208             0.000000         1.00000      sq6500
sq6500_209             0.000000         1.00000      sq6500
sq6500_210             31.59938         1.00000      sq6500
sq6500_211             6.413267         1.00000      sq6500
sq6500_212             0.000000         1.00000      sq6500
sq6500_213             0.000000         1.00000      sq6500
sq6500_214             0.000000         1.00000      sq6500
sq6500_215             0.000000         1.00000      sq6500
sq6500_216             14.46903         1.00000      sq6500
sq6500_217             13.76287         1.00000      sq6500
sq6500_218             2.604521         1.00000      sq6500
sq6500_219             0.000000         1.00000      sq6500
sq6500_220             0.000000         1.00000      sq6500
sq6500_221             0.000000         1.00000      sq6500
sq6500_222             0.000000         1.00000      sq6500
sq6500_223             0.000000         1.00000      sq6500
sq6500_224             0.000000         1.00000      sq6500
sq6500_225             0.000000         1.00000      sq6500
sq6500_226             0.000000         1.00000      sq6500
sq6500_227             0.000000         1.00000      sq6500
sq6500_228             0.000000         1.00000      sq6500
sq6500_229             1.673418         1.00000      sq6500
sq6500_230             0.000000         1.00000      sq6500
sq6500_231             0.000000         1.00000      sq6500
sq6500_232             0.000000         1.00000      sq6500
sq6500_233             0.000000         1.00000      sq6500
sq6500_234             0.000000         1.00000      sq6500
sq6500_235             0.000000         1.00000      sq6500
sq6500_236            0.2927925         1.00000      sq6500
sq6500_237             1.530211         1.00000      sq6500
sq6500_238             0.000000         1.00000      sq6500
sq6500_239             0.000000         1.00000      sq6500
sq6500_240             0.000000         1.00000      sq6500
sq6500_241            5.2387476E-02     1.00000      sq6500
sq6500_242             0.000000         1.00000      sq6500
sq6500_243             0.000000         1.00000      sq6500
sq6500_244             0.000000         1.00000      sq6500
sq6500_245            0.2085681         1.00000      sq6500
sq6500_246             0.000000         1.00000      sq6500
sq6500_247             0.000000         1.00000      sq6500
sq6500_248             0.000000         1.00000      sq6500
sq6500_249             0.000000         1.00000      sq6500
sq6500_250             0.000000         1.00000      sq6500
sq6500_251             0.000000         1.00000      sq6500
sq6500_252             0.000000         1.00000      sq6500
sq6500_253             0.000000         1.00000      sq6500
sq6500_254             0.000000         1.00000      sq6500
sq6500_255             0.000000         1.00000      sq6500
sq6500_256             1.055697         1.00000      sq6500
sq6500_257             22.24540         1.00000      sq6500
sq6500_258             5.339377         1.00000      sq6500
sq6500_259            0.3363433         1.00000      sq6500
sq6500_260             0.000000         1.00000      sq6500
sq6500_261             0.000000         1.00000      sq6500
sq6500_262             0.000000         1.00000      sq6500
sq6500_263             0.000000         1.00000      sq6500
sq6500_264             2.017671         1.00000      sq6500
sq6500_265             0.000000         1.00000      sq6500
sq6500_266             0.000000         1.00000      sq6500
sq6500_267             0.000000         1.00000      sq6500
sq6500_268             0.000000         1.00000      sq6500
sq6500_269             0.000000         1.00000      sq6500
sq6500_270             0.000000         1.00000      sq6500
sq6500_271             0.000000         1.00000      sq6500
sq6500_272             0.000000         1.00000      sq6500
sq6500_273             3.006165         1.00000      sq6500
sq6500_274             7.629599         1.00000      sq6500
sq6500_275            0.3768396         1.00000      sq6500
sq6500_276             0.000000         1.00000      sq6500
sq6500_277             0.000000         1.00000      sq6500
sq6500_278             0.000000         1.00000      sq6500
sq6500_279             6.569633         1.00000      sq6500
sq6500_280             9.996635         1.00000      sq6500
sq6500_281            0.6927834         1.00000      sq6500
sq6500_282            0.7680595         1.00000      sq6500
sq6500_283             0.000000         1.00000      sq6500
sq6500_284             0.000000         1.00000      sq6500
sq6500_285             0.000000         1.00000      sq6500
sq6500_286             0.000000         1.00000      sq6500
sq6500_287             0.000000         1.00000      sq6500
sq6500_288             0.000000         1.00000      sq6500
sq6500_289             0.000000         1.00000      sq6500
sq6500_290             0.000000         1.00000      sq6500
sq6500_291             0.000000         1.00000      sq6500
sq6500_292             0.000000         1.00000      sq6500
sq6500_293             1.619659         1.00000      sq6500
sq6500_294             2.542881         1.00000      sq6500
sq6500_295             0.000000         1.00000      sq6500
sq6500_296             0.000000         1.00000      sq6500
sq6500_297             0.000000         1.00000      sq6500
sq6500_298             0.000000         1.00000      sq6500
sq6500_299             0.000000         1.00000      sq6500
sq6500_300             0.000000         1.00000      sq6500
sq6500_301            0.7326319         1.00000      sq6500
sq6500_302             0.000000         1.00000      sq6500
sq6500_303             0.000000         1.00000      sq6500
sq6500_304             0.000000         1.00000      sq6500
sq6500_305             0.000000         1.00000      sq6500
sq6500_306             0.000000         1.00000      sq6500
sq6500_307             0.000000         1.00000      sq6500
sq6500_308             0.000000         1.00000      sq6500
sq6500_309             0.000000         1.00000      sq6500
sq6500_310             0.000000         1.00000      sq6500
sq6500_311             28.01697         1.00000      sq6500
sq6500_312             5.713280         1.00000      sq6500
sq6500_313             0.000000         1.00000      sq6500
sq6500_314             0.000000         1.00000      sq6500
sq6500_315             0.000000         1.00000      sq6500
sq6500_316             0.000000         1.00000      sq6500
sq6500_317             0.000000         1.00000      sq6500
sq6500_318             0.000000         1.00000      sq6500
sq6500_319             0.000000         1.00000      sq6500
sq6500_320            0.1001405         1.00000      sq6500
sq6500_321            6.1228249E-02     1.00000      sq6500
sq6500_322            2.2302970E-02     1.00000      sq6500
sq6500_323             1.911083         1.00000      sq6500
sq6500_324            0.7746709         1.00000      sq6500
sq6500_325            0.6897695         1.00000      sq6500
sq6500_326            0.6133894         1.00000      sq6500
sq6500_327            0.5447417         1.00000      sq6500
sq6500_328            0.4831086         1.00000      sq6500
sq6500_329             1.391801         1.00000      sq6500
sq6500_330             1.275864         1.00000      sq6500
sq6500_331            0.2120752         1.00000      sq6500
sq6500_332             0.000000         1.00000      sq6500
sq6500_333             2.172312         1.00000      sq6500
sq6500_334            8.7700248E-02     1.00000      sq6500
sq6500_335             0.000000         1.00000      sq6500
sq6500_336             0.000000         1.00000      sq6500
sq6500_337             0.000000         1.00000      sq6500
sq6500_338             0.000000         1.00000      sq6500
sq6500_339             0.000000         1.00000      sq6500
sq6500_340             0.000000         1.00000      sq6500
sq6500_341             0.000000         1.00000      sq6500
sq6500_342             0.000000         1.00000      sq6500
sq6500_343             0.000000         1.00000      sq6500
sq6500_344             0.000000         1.00000      sq6500
sq6500_345             0.000000         1.00000      sq6500
sq6500_346             9.430517         1.00000      sq6500
sq6500_347             0.000000         1.00000      sq6500
sq6500_348             5.648159         1.00000      sq6500
sq6500_349             17.69208         1.00000      sq6500
sq6500_350             2.912536         1.00000      sq6500
sq6500_351             0.000000         1.00000      sq6500
sq6500_352             1.118858         1.00000      sq6500
sq6500_353             0.000000         1.00000      sq6500
sq6500_354             0.000000         1.00000      sq6500
sq6500_355             0.000000         1.00000      sq6500
sq6500_356             0.000000         1.00000      sq6500
sq6500_357             0.000000         1.00000      sq6500
sq6500_358             0.000000         1.00000      sq6500
sq6500_359             0.000000         1.00000      sq6500
sq6500_360             0.000000         1.00000      sq6500
sq6500_361             0.000000         1.00000      sq6500
sq6500_362             0.000000         1.00000      sq6500
sq6500_363             0.000000         1.00000      sq6500
sq6500_364             0.000000         1.00000      sq6500
sq6500_365             0.000000         1.00000      sq6500
sq6500_366             0.000000         1.00000      sq6500
sq6500_367             0.000000         1.00000      sq6500
sq6500_368             1.330780         1.00000      sq6500
sq6500_369             7.745275         1.00000      sq6500
sq6500_370             0.000000         1.00000      sq6500
sq6500_371             0.000000         1.00000      sq6500
sq6500_372             0.000000         1.00000      sq6500
sq6500_373             0.000000         1.00000      sq6500
sq6500_374             0.000000         1.00000      sq6500
sq6500_375             0.000000         1.00000      sq6500
sq6500_376             0.000000         1.00000      sq6500
sq6500_377             0.000000         1.00000      sq6500
sq6500_378             0.000000         1.00000      sq6500
sq6500_379             0.000000         1.00000      sq6500
sq6500_380             0.000000         1.00000      sq6500
sq6500_381             0.000000         1.00000      sq6500
sq6500_382             0.000000         1.00000      sq6500
sq6500_383             0.000000         1.00000      sq6500
sq6500_384             0.000000         1.00000      sq6500
sq6500_385             0.000000         1.00000      sq6500
sq6500_386             0.000000         1.00000      sq6500
sq6500_387             0.000000         1.00000      sq6500
sq6500_388             1.165493         1.00000      sq6500
sq6500_389             138.5836         1.00000      sq6500
sq6500_390             21.63831         1.00000      sq6500
sq6500_391             5.182159         1.00000      sq6500
sq6500_392             0.000000         1.00000      sq6500
sq6500_393             14.99814         1.00000      sq6500
sq6500_394             5.953990         1.00000      sq6500
sq6500_395             0.000000         1.00000      sq6500
sq6500_396             44.93486         1.00000      sq6500
sq6500_397             23.42457         1.00000      sq6500
sq6500_398             0.000000         1.00000      sq6500
sq6500_399             0.000000         1.00000      sq6500
sq6500_400             0.000000         1.00000      sq6500
sq6500_401             0.000000         1.00000      sq6500
sq6500_402             0.000000         1.00000      sq6500
sq6500_403             0.000000         1.00000      sq6500
sq6500_404             0.000000         1.00000      sq6500
sq6500_405             0.000000         1.00000      sq6500
sq6500_406             0.000000         1.00000      sq6500
sq6500_407             0.000000         1.00000      sq6500
sq6500_408             0.000000         1.00000      sq6500
sq6500_409             0.000000         1.00000      sq6500
sq6500_410             7.220407         1.00000      sq6500
sq6500_411             0.000000         1.00000      sq6500
sq6500_412             0.000000         1.00000      sq6500
sq6500_413             17.36122         1.00000      sq6500
sq6500_414             5.461661         1.00000      sq6500
sq6500_415             0.000000         1.00000      sq6500
sq6500_416             0.000000         1.00000      sq6500
sq6500_417             0.000000         1.00000      sq6500
sq6500_418             3.952841         1.00000      sq6500
sq6500_419             1.763289         1.00000      sq6500
sq6500_420             0.000000         1.00000      sq6500
sq6500_421             0.000000         1.00000      sq6500
sq6500_422             0.000000         1.00000      sq6500
sq6500_423             0.000000         1.00000      sq6500
sq6500_424             0.000000         1.00000      sq6500
sq6500_425             38.05532         1.00000      sq6500
sq6500_426             7.386520         1.00000      sq6500
sq6500_427             0.000000         1.00000      sq6500
sq6500_428             0.000000         1.00000      sq6500
sq6500_429             0.000000         1.00000      sq6500
sq6500_430             0.000000         1.00000      sq6500
sq6500_431             0.000000         1.00000      sq6500
sq6500_432             0.000000         1.00000      sq6500
sq6500_433             1.607091         1.00000      sq6500
sq6500_434             2.540007         1.00000      sq6500
sq6500_435            0.5287759         1.00000      sq6500
sq6500_436             0.000000         1.00000      sq6500
sq6500_437             7.559513         1.00000      sq6500
sq6500_438             10.04291         1.00000      sq6500
sq6500_439             3.731973         1.00000      sq6500
sq6500_440             0.000000         1.00000      sq6500
sq6500_441             0.000000         1.00000      sq6500
sq6500_442             0.000000         1.00000      sq6500
sq6500_443             0.000000         1.00000      sq6500
sq6500_444             0.000000         1.00000      sq6500
sq6500_445             0.000000         1.00000      sq6500
sq6500_446             0.000000         1.00000      sq6500
sq6500_447             0.000000         1.00000      sq6500
sq6500_448             0.000000         1.00000      sq6500
sq6500_449             0.000000         1.00000      sq6500
sq6500_450             0.000000         1.00000      sq6500
sq6500_451             0.000000         1.00000      sq6500
sq6500_452             0.000000         1.00000      sq6500
sq6500_453             0.000000         1.00000      sq6500
sq6500_454             0.000000         1.00000      sq6500
sq6500_455             0.000000         1.00000      sq6500
sq6500_456             0.000000         1.00000      sq6500
sq6500_457             0.000000         1.00000      sq6500
sq6500_458             0.000000         1.00000      sq6500
sq6500_459             0.000000         1.00000      sq6500
sq6500_460             0.000000         1.00000      sq6500
sq6500_461             0.000000         1.00000      sq6500
sq6500_462             0.000000         1.00000      sq6500
sq6500_463             0.000000         1.00000      sq6500
sq6500_464             0.000000         1.00000      sq6500
sq6500_465             4.617084         1.00000      sq6500
sq6500_466             1.457087         1.00000      sq6500
sq6500_467             0.000000         1.00000      sq6500
sq6500_468             1.543377         1.00000      sq6500
sq6500_469             3.436593         1.00000      sq6500
sq6500_470             1.349520         1.00000      sq6500
sq6500_471             0.000000         1.00000      sq6500
sq6500_472             0.000000         1.00000      sq6500
sq6500_473             0.000000         1.00000      sq6500
sq6500_474             0.000000         1.00000      sq6500
sq6500_475             0.000000         1.00000      sq6500
sq6500_476             0.000000         1.00000      sq6500