pcf
* control data
restart estimation
         6       3666          4          0          2
         1          1     single      point          1          0          0 noobsreref
 10.000000   2.000000   0.300000   0.030000         10        999 nolamforgive noderforgive
  5.000000   5.000000   0.001000          0          0
  0.100000          1          0        aui nosenreuse boundscale
        30   0.005000          4          4   0.005000          4        0.0          1       -1.0
         1          1          1          0    jcosave verboserec nojcosaveitn reisaveitn noparsaveitn noparsaverun
* lsqr
         1
    0.0001     0.0001     1000.0         24
         0
* parameter groups
prcp           relative       0.01      1e-05     switch        2.0 outside_pts
evap           relative       0.01      1e-05     switch        2.0 outside_pts
soilzone       relative       0.01      1e-05     switch        2.0 outside_pts
ssres          relative       0.01      1e-05     switch        2.0 outside_pts
* parameter data
jhcoef_fac             log          factor        1.000000        0.750000        1.500000       evap      1.000      0.000          1
rnadj_fac              log          factor        1.000000        0.750000        1.500000       prcp      1.000      0.000          1
snwadj_fac             log          factor        1.000000        0.750000        1.500000       prcp      1.000      0.000          1
pfd_fac                log          factor        1.000000        0.750000        1.500000   soilzone      1.000      0.000          1
s2gw_fac               log          factor        1.000000        0.750000        1.500000      ssres      1.000      0.000          1
s2gwe_fac              log          factor        1.000000        0.750000        1.500000      ssres      1.000      0.000          1
* observation groups
sq6500
flow_dur_sim
* observation data
sq65001                    19.000000        0.052632 sq6500
sq65002                    18.000000        0.055556 sq6500
sq65003                    22.000000        0.045455 sq6500
sq65004                    21.000000        0.047619 sq6500
sq65005                    19.000000        0.052632 sq6500
sq65006                    19.000000        0.052632 sq6500
sq65007                    19.000000        0.052632 sq6500
sq65008                    20.000000        0.050000 sq6500
sq65009                    21.000000        0.047619 sq6500
sq650010                   25.000000        0.040000 sq6500
sq650011                   28.000000        0.035714 sq6500
sq650012                   27.000000        0.037037 sq6500
sq650013                   23.000000        0.043478 sq6500
sq650014                   23.000000        0.043478 sq6500
sq650015                   23.000000        0.043478 sq6500
sq650016                   22.000000        0.045455 sq6500
sq650017                   23.000000        0.043478 sq6500
sq650018                   26.000000        0.038462 sq6500
sq650019                   23.000000        0.043478 sq6500
sq650020                   22.000000        0.045455 sq6500
sq650021                   23.000000        0.043478 sq6500
sq650022                   22.000000        0.045455 sq6500
sq650023                   22.000000        0.045455 sq6500
sq650024                   21.000000        0.047619 sq6500
sq650025                   21.000000        0.047619 sq6500
sq650026                   20.000000        0.050000 sq6500
sq650027                   20.000000        0.050000 sq6500
sq650028                   20.000000        0.050000 sq6500
sq650029                   20.000000        0.050000 sq6500
sq650030                   20.000000        0.050000 sq6500
sq650031                   20.000000        0.050000 sq6500
sq650032                   20.000000        0.050000 sq6500
sq650033                   20.000000        0.050000 sq6500
sq650034                   20.000000        0.050000 sq6500
sq650035                   23.000000        0.043478 sq6500
sq650036                   22.000000        0.045455 sq6500
sq650037                   25.000000        0.040000 sq6500
sq650038                   22.000000        0.045455 sq6500
sq650039                   21.000000        0.047619 sq6500
sq650040                   22.000000        0.045455 sq6500
sq650041                   22.000000        0.045455 sq6500
sq650042                   21.000000        0.047619 sq6500
sq650043                   21.000000        0.047619 sq6500
sq650044                   21.000000        0.047619 sq6500
sq650045                   21.000000        0.047619 sq6500
sq650046                   21.000000        0.047619 sq6500
sq650047                   22.000000        0.045455 sq6500
sq650048                   21.000000        0.047619 sq6500
sq650049                   21.000000        0.047619 sq6500
sq650050                   21.000000        0.047619 sq6500
sq650051                   21.000000        0.047619 sq6500
sq650052                   24.000000        0.041667 sq6500
sq650053                   22.000000        0.045455 sq6500
sq650054                   22.000000        0.045455 sq6500
sq650055                   21.000000        0.047619 sq6500
sq650056                   21.000000        0.047619 sq6500
sq650057                   21.000000        0.047619 sq6500
sq650058                   29.000000        0.034483 sq6500
sq650059                   27.000000        0.037037 sq6500
sq650060                   23.000000        0.043478 sq6500
sq650061                   22.000000        0.045455 sq6500
sq650062                   22.000000        0.045455 sq6500
sq650063                   21.000000        0.047619 sq6500
sq650064                   21.000000        0.047619 sq6500
sq650065                   21.000000        0.047619 sq6500
sq650066                   21.000000        0.047619 sq6500
sq650067                   20.000000        0.050000 sq6500
sq650068                   20.000000        0.050000 sq6500
sq650069                   20.000000        0.050000 sq6500
sq650070                   21.000000        0.047619 sq6500
sq650071                   21.000000        0.047619 sq6500
sq650072                   22.000000        0.045455 sq6500
sq650073                   23.000000        0.043478 sq6500
sq650074                   24.000000        0.041667 sq6500
sq650075                   23.000000        0.043478 sq6500
sq650076                   23.000000        0.043478 sq6500
sq650077                   21.000000        0.047619 sq6500
sq650078                   22.000000        0.045455 sq6500
sq650079                   23.000000        0.043478 sq6500
sq650080                   22.000000        0.045455 sq6500
sq650081                   22.000000        0.045455 sq6500
sq650082                   23.000000        0.043478 sq6500
sq650083                   22.000000        0.045455 sq6500
sq650084                   22.000000        0.045455 sq6500
sq650085                   21.000000        0.047619 sq6500
sq650086                   21.000000        0.047619 sq6500
sq650087                   21.000000        0.047619 sq6500
sq650088                   21.000000        0.047619 sq6500
sq650089                   22.000000        0.045455 sq6500
sq650090                   21.000000        0.047619 sq6500
sq650091                   19.000000        0.052632 sq6500
sq650092                   21.000000        0.047619 sq6500
sq650093                   21.000000        0.047619 sq6500
sq650094                   20.000000        0.050000 sq6500
sq650095                   20.000000        0.050000 sq6500
sq650096                   20.000000        0.050000 sq6500
sq650097                   20.000000        0.050000 sq6500
sq650098                   21.000000        0.047619 sq6500
sq650099                   22.000000        0.045455 sq6500
sq6500100                  21.000000        0.047619 sq6500
sq6500101                  21.000000        0.047619 sq6500
sq6500102                  21.000000        0.047619 sq6500
sq6500103                  21.000000        0.047619 sq6500
sq6500104                  21.000000        0.047619 sq6500
sq6500105                  21.000000        0.047619 sq6500
sq6500106                  21.000000        0.047619 sq6500
sq6500107                  22.000000        0.045455 sq6500
sq6500108                  21.000000        0.047619 sq6500
sq6500109                  20.000000        0.050000 sq6500
sq6500110                  21.000000        0.047619 sq6500
sq6500111                  21.000000        0.047619 sq6500
sq6500112                  20.000000        0.050000 sq6500
sq6500113                  20.000000        0.050000 sq6500
sq6500114                  20.000000        0.050000 sq6500
sq6500115                  20.000000        0.050000 sq6500
sq6500116                  20.000000        0.050000 sq6500
sq6500117                  20.000000        0.050000 sq6500
sq6500118                  20.000000        0.050000 sq6500
sq6500119                  19.000000        0.052632 sq6500
sq6500120                  19.000000        0.052632 sq6500
sq6500121                  19.000000        0.052632 sq6500
sq6500122                  19.000000        0.052632 sq6500
sq6500123                  19.000000        0.052632 sq6500
sq6500124                  20.000000        0.050000 sq6500
sq6500125                  20.000000        0.050000 sq6500
sq6500126                  20.000000        0.050000 sq6500
sq6500127                  21.000000        0.047619 sq6500
sq6500128                  22.000000        0.045455 sq6500
sq6500129                  22.000000        0.045455 sq6500
sq6500130                  23.000000        0.043478 sq6500
sq6500131                  27.000000        0.037037 sq6500
sq6500132                  27.000000        0.037037 sq6500
sq6500133                  27.000000        0.037037 sq6500
sq6500134                  24.000000        0.041667 sq6500
sq6500135                  24.000000        0.041667 sq6500
sq6500136                  23.000000        0.043478 sq6500
sq6500137                  23.000000        0.043478 sq6500
sq6500138                  23.000000        0.043478 sq6500
sq6500139                  22.000000        0.045455 sq6500
sq6500140                  22.000000        0.045455 sq6500
sq6500141                  22.000000        0.045455 sq6500
sq6500142                  23.000000        0.043478 sq6500
sq6500143                  24.000000        0.041667 sq6500
sq6500144                  32.000000        0.031250 sq6500
sq6500145                  47.000000        0.021277 sq6500
sq6500146                  37.000000        0.027027 sq6500
sq6500147                  30.000000        0.033333 sq6500
sq6500148                  28.000000        0.035714 sq6500
sq6500149                  26.000000        0.038462 sq6500
sq6500150                  25.000000        0.040000 sq6500
sq6500151                  24.000000        0.041667 sq6500
sq6500152                  69.000000        0.014493 sq6500
sq6500153                 223.000000        0.004484 sq6500
sq6500154                  65.000000        0.015385 sq6500
sq6500155                  48.000000        0.020833 sq6500
sq6500156                  50.000000        0.020000 sq6500
sq6500157                  66.000000        0.015152 sq6500
sq6500158                  44.000000        0.022727 sq6500
sq6500159                  40.000000        0.025000 sq6500
sq6500160                  39.000000        0.025641 sq6500
sq6500161                  34.000000        0.029412 sq6500
sq6500162                  36.000000        0.027778 sq6500
sq6500163                  34.000000        0.029412 sq6500
sq6500164                  31.000000        0.032258 sq6500
sq6500165                  29.000000        0.034483 sq6500
sq6500166                  30.000000        0.033333 sq6500
sq6500167                  29.000000        0.034483 sq6500
sq6500168                  29.000000        0.034483 sq6500
sq6500169                  36.000000        0.027778 sq6500
sq6500170                  35.000000        0.028571 sq6500
sq6500171                  33.000000        0.030303 sq6500
sq6500172                  33.000000        0.030303 sq6500
sq6500173                  32.000000        0.031250 sq6500
sq6500174                  60.000000        0.016667 sq6500
sq6500175                  41.000000        0.024390 sq6500
sq6500176                  36.000000        0.027778 sq6500
sq6500177                  37.000000        0.027027 sq6500
sq6500178                  61.000000        0.016393 sq6500
sq6500179                  48.000000        0.020833 sq6500
sq6500180                  37.000000        0.027027 sq6500
sq6500181                  35.000000        0.028571 sq6500
sq6500182                  32.000000        0.031250 sq6500
sq6500183                  29.000000        0.034483 sq6500
sq6500184                  28.000000        0.035714 sq6500
sq6500185                  27.000000        0.037037 sq6500
sq6500186                  26.000000        0.038462 sq6500
sq6500187                  23.000000        0.043478 sq6500
sq6500188                  23.000000        0.043478 sq6500
sq6500189                  23.000000        0.043478 sq6500
sq6500190                  25.000000        0.040000 sq6500
sq6500191                  61.000000        0.016393 sq6500
sq6500192                  52.000000        0.019231 sq6500
sq6500193                  40.000000        0.025000 sq6500
sq6500194                  62.000000        0.016129 sq6500
sq6500195                 130.000000        0.007692 sq6500
sq6500196                 135.000000        0.007407 sq6500
sq6500197                  94.000000        0.010638 sq6500
sq6500198                  68.000000        0.014706 sq6500
sq6500199                  56.000000        0.017857 sq6500
sq6500200                  51.000000        0.019608 sq6500
sq6500201                  46.000000        0.021739 sq6500
sq6500202                  45.000000        0.022222 sq6500
sq6500203                  41.000000        0.024390 sq6500
sq6500204                  40.000000        0.025000 sq6500
sq6500205                  41.000000        0.024390 sq6500
sq6500206                  38.000000        0.026316 sq6500
sq6500207                  36.000000        0.027778 sq6500
sq6500208                  35.000000        0.028571 sq6500
sq6500209                  35.000000        0.028571 sq6500
sq6500210                  36.000000        0.027778 sq6500
sq6500211                  78.000000        0.012821 sq6500
sq6500212                  54.000000        0.018519 sq6500
sq6500213                  45.000000        0.022222 sq6500
sq6500214                  41.000000        0.024390 sq6500
sq6500215                  37.000000        0.027027 sq6500
sq6500216                  35.000000        0.028571 sq6500
sq6500217                  59.000000        0.016949 sq6500
sq6500218                  59.000000        0.016949 sq6500
sq6500219                  48.000000        0.020833 sq6500
sq6500220                  44.000000        0.022727 sq6500
sq6500221                  41.000000        0.024390 sq6500
sq6500222                  38.000000        0.026316 sq6500
sq6500223                  36.000000        0.027778 sq6500
sq6500224                  34.000000        0.029412 sq6500
sq6500225                  34.000000        0.029412 sq6500
sq6500226                  34.000000        0.029412 sq6500
sq6500227                  33.000000        0.030303 sq6500
sq6500228                  32.000000        0.031250 sq6500
sq6500229                  31.000000        0.032258 sq6500
sq6500230                  38.000000        0.026316 sq6500
sq6500231                  36.000000        0.027778 sq6500
sq6500232                  33.000000        0.030303 sq6500
sq6500233                  35.000000        0.028571 sq6500
sq6500234                  34.000000        0.029412 sq6500
sq6500235                  34.000000        0.029412 sq6500
sq6500236                  33.000000        0.030303 sq6500
sq6500237                  34.000000        0.029412 sq6500
sq6500238                  35.000000        0.028571 sq6500
sq6500239                  32.000000        0.031250 sq6500
sq6500240                  31.000000        0.032258 sq6500
sq6500241                  30.000000        0.033333 sq6500
sq6500242                  32.000000        0.031250 sq6500
sq6500243                  31.000000        0.032258 sq6500
sq6500244                  30.000000        0.033333 sq6500
sq6500245                  31.000000        0.032258 sq6500
sq6500246                  31.000000        0.032258 sq6500
sq6500247                  30.000000        0.033333 sq6500
sq6500248                  29.000000        0.034483 sq6500
sq6500249                  29.000000        0.034483 sq6500
sq6500250                  28.000000        0.035714 sq6500
sq6500251                  29.000000        0.034483 sq6500
sq6500252                  27.000000        0.037037 sq6500
sq6500253                  28.000000        0.035714 sq6500
sq6500254                  28.000000        0.035714 sq6500
sq6500255                  26.000000        0.038462 sq6500
sq6500256                  25.000000        0.040000 sq6500
sq6500257                  29.000000        0.034483 sq6500
sq6500258                  51.000000        0.019608 sq6500
sq6500259                  35.000000        0.028571 sq6500
sq6500260                  30.000000        0.033333 sq6500
sq6500261                  29.000000        0.034483 sq6500
sq6500262                  27.000000        0.037037 sq6500
sq6500263                  25.000000        0.040000 sq6500
sq6500264                  25.000000        0.040000 sq6500
sq6500265                  30.000000        0.033333 sq6500
sq6500266                  25.000000        0.040000 sq6500
sq6500267                  24.000000        0.041667 sq6500
sq6500268                  23.000000        0.043478 sq6500
sq6500269                  24.000000        0.041667 sq6500
sq6500270                  24.000000        0.041667 sq6500
sq6500271                  26.000000        0.038462 sq6500
sq6500272                  25.000000        0.040000 sq6500
sq6500273                  25.000000        0.040000 sq6500
sq6500274                  29.000000        0.034483 sq6500
sq6500275                  34.000000        0.029412 sq6500
sq6500276                  27.000000        0.037037 sq6500
sq6500277                  26.000000        0.038462 sq6500
sq6500278                  25.000000        0.040000 sq6500
sq6500279                  25.000000        0.040000 sq6500
sq6500280                  33.000000        0.030303 sq6500
sq6500281                  37.000000        0.027027 sq6500
sq6500282                  28.000000        0.035714 sq6500
sq6500283                  28.000000        0.035714 sq6500
sq6500284                  26.000000        0.038462 sq6500
sq6500285                  26.000000        0.038462 sq6500
sq6500286                  26.000000        0.038462 sq6500
sq6500287                  25.000000        0.040000 sq6500
sq6500288                  24.000000        0.041667 sq6500
sq6500289                  25.000000        0.040000 sq6500
sq6500290                  25.000000        0.040000 sq6500
sq6500291                  25.000000        0.040000 sq6500
sq6500292                  25.000000        0.040000 sq6500
sq6500293                  25.000000        0.040000 sq6500
sq6500294                  27.000000        0.037037 sq6500
sq6500295                  28.000000        0.035714 sq6500
sq6500296                  24.000000        0.041667 sq6500
sq6500297                  23.000000        0.043478 sq6500
sq6500298                  23.000000        0.043478 sq6500
sq6500299                  22.000000        0.045455 sq6500
sq6500300                  22.000000        0.045455 sq6500
sq6500301                  23.000000        0.043478 sq6500
sq6500302                  25.000000        0.040000 sq6500
sq6500303                  24.000000        0.041667 sq6500
sq6500304                  24.000000        0.041667 sq6500
sq6500305                  24.000000        0.041667 sq6500
sq6500306                  24.000000        0.041667 sq6500
sq6500307                  23.000000        0.043478 sq6500
sq6500308                  23.000000        0.043478 sq6500
sq6500309                  22.000000        0.045455 sq6500
sq6500310                  21.000000        0.047619 sq6500
sq6500311                  22.000000        0.045455 sq6500
sq6500312                  53.000000        0.018868 sq6500
sq6500313                  32.000000        0.031250 sq6500
sq6500314                  24.000000        0.041667 sq6500
sq6500315                  22.000000        0.045455 sq6500
sq6500316                  22.000000        0.045455 sq6500
sq6500317                  22.000000        0.045455 sq6500
sq6500318                  23.000000        0.043478 sq6500
sq6500319                  23.000000        0.043478 sq6500
sq6500320                  24.000000        0.041667 sq6500
sq6500321                  25.000000        0.040000 sq6500
sq6500322                  25.000000        0.040000 sq6500
sq6500323                  25.000000        0.040000 sq6500
sq6500324                  27.000000        0.037037 sq6500
sq6500325                  26.000000        0.038462 sq6500
sq6500326                  26.000000        0.038462 sq6500
sq6500327                  26.000000        0.038462 sq6500
sq6500328                  26.000000        0.038462 sq6500
sq6500329                  26.000000        0.038462 sq6500
sq6500330                  27.000000        0.037037 sq6500
sq6500331                  27.000000        0.037037 sq6500
sq6500332                  26.000000        0.038462 sq6500
sq6500333                  25.000000        0.040000 sq6500
sq6500334                  28.000000        0.035714 sq6500
sq6500335                  26.000000        0.038462 sq6500
sq6500336                  24.000000        0.041667 sq6500
sq6500337                  23.000000        0.043478 sq6500
sq6500338                  24.000000        0.041667 sq6500
sq6500339                  24.000000        0.041667 sq6500
sq6500340                  24.000000        0.041667 sq6500
sq6500341                  24.000000        0.041667 sq6500
sq6500342                  23.000000        0.043478 sq6500
sq6500343                  23.000000        0.043478 sq6500
sq6500344                  24.000000        0.041667 sq6500
sq6500345                  23.000000        0.043478 sq6500
sq6500346                  24.000000        0.041667 sq6500
sq6500347                  35.000000        0.028571 sq6500
sq6500348                  26.000000        0.038462 sq6500
sq6500349                  32.000000        0.031250 sq6500
sq6500350                  45.000000        0.022222 sq6500
sq6500351                  31.000000        0.032258 sq6500
sq6500352                  25.000000        0.040000 sq6500
sq6500353                  29.000000        0.034483 sq6500
sq6500354                  24.000000        0.041667 sq6500
sq6500355                  23.000000        0.043478 sq6500
sq6500356                  22.000000        0.045455 sq6500
sq6500357                  23.000000        0.043478 sq6500
sq6500358                  24.000000        0.041667 sq6500
sq6500359                  24.000000        0.041667 sq6500
sq6500360                  25.000000        0.040000 sq6500
sq6500361                  24.000000        0.041667 sq6500
sq6500362                  24.000000        0.041667 sq6500
sq6500363                  23.000000        0.043478 sq6500
sq6500364                  22.000000        0.045455 sq6500
sq6500365                  22.000000        0.045455 sq6500
sq6500366                  23.000000        0.043478 sq6500
sq6500367                  23.000000        0.043478 sq6500
sq6500368                  23.000000        0.043478 sq6500
sq6500369                  27.000000        0.037037 sq6500
sq6500370                  34.000000        0.029412 sq6500
sq6500371                  26.000000        0.038462 sq6500
sq6500372                  24.000000        0.041667 sq6500
sq6500373                  24.000000        0.041667 sq6500
sq6500374                  23.000000        0.043478 sq6500
sq6500375                  22.000000        0.045455 sq6500
sq6500376                  22.000000        0.045455 sq6500
sq6500377                  21.000000        0.047619 sq6500
sq6500378                  21.000000        0.047619 sq6500
sq6500379                  22.000000        0.045455 sq6500
sq6500380                  22.000000        0.045455 sq6500
sq6500381                  21.000000        0.047619 sq6500
sq6500382                  21.000000        0.047619 sq6500
sq6500383                  20.000000        0.050000 sq6500
sq6500384                  21.000000        0.047619 sq6500
sq6500385                  21.000000        0.047619 sq6500
sq6500386                  21.000000        0.047619 sq6500
sq6500387                  21.000000        0.047619 sq6500
sq6500388                  22.000000        0.045455 sq6500
sq6500389                  32.000000        0.031250 sq6500
sq6500390                 176.000000        0.005682 sq6500
sq6500391                  66.000000        0.015152 sq6500
sq6500392                  51.000000        0.019608 sq6500
sq6500393                  43.000000        0.023256 sq6500
sq6500394                  62.000000        0.016129 sq6500
sq6500395                  54.000000        0.018519 sq6500
sq6500396                  46.000000        0.021739 sq6500
sq6500397                  95.000000        0.010526 sq6500
sq6500398                  76.000000        0.013158 sq6500
sq6500399                  50.000000        0.020000 sq6500
sq6500400                  43.000000        0.023256 sq6500
sq6500401                  39.000000        0.025641 sq6500
sq6500402                  37.000000        0.027027 sq6500
sq6500403                  34.000000        0.029412 sq6500
sq6500404                  31.000000        0.032258 sq6500
sq6500405                  30.000000        0.033333 sq6500
sq6500406                  29.000000        0.034483 sq6500
sq6500407                  29.000000        0.034483 sq6500
sq6500408                  29.000000        0.034483 sq6500
sq6500409                  29.000000        0.034483 sq6500
sq6500410                  31.000000        0.032258 sq6500
sq6500411                  47.000000        0.021277 sq6500
sq6500412                  40.000000        0.025000 sq6500
sq6500413                  36.000000        0.027778 sq6500
sq6500414                  58.000000        0.017241 sq6500
sq6500415                  47.000000        0.021277 sq6500
sq6500416                  41.000000        0.024390 sq6500
sq6500417                  38.000000        0.026316 sq6500
sq6500418                  36.000000        0.027778 sq6500
sq6500419                  45.000000        0.022222 sq6500
sq6500420                  43.000000        0.023256 sq6500
sq6500421                  38.000000        0.026316 sq6500
sq6500422                  36.000000        0.027778 sq6500
sq6500423                  35.000000        0.028571 sq6500
sq6500424                  33.000000        0.030303 sq6500
sq6500425                  36.000000        0.027778 sq6500
sq6500426                  79.000000        0.012658 sq6500
sq6500427                  50.000000        0.020000 sq6500
sq6500428                  42.000000        0.023810 sq6500
sq6500429                  39.000000        0.025641 sq6500
sq6500430                  36.000000        0.027778 sq6500
sq6500431                  34.000000        0.029412 sq6500
sq6500432                  33.000000        0.030303 sq6500
sq6500433                  33.000000        0.030303 sq6500
sq6500434                  41.000000        0.024390 sq6500
sq6500435                  42.000000        0.023810 sq6500
sq6500436                  40.000000        0.025000 sq6500
sq6500437                  38.000000        0.026316 sq6500
sq6500438                  47.000000        0.021277 sq6500
sq6500439                  50.000000        0.020000 sq6500
sq6500440                  44.000000        0.022727 sq6500
sq6500441                  40.000000        0.025000 sq6500
sq6500442                  38.000000        0.026316 sq6500
sq6500443                  37.000000        0.027027 sq6500
sq6500444                  35.000000        0.028571 sq6500
sq6500445                  34.000000        0.029412 sq6500
sq6500446                  35.000000        0.028571 sq6500
sq6500447                  35.000000        0.028571 sq6500
sq6500448                  35.000000        0.028571 sq6500
sq6500449                  35.000000        0.028571 sq6500
sq6500450                  35.000000        0.028571 sq6500
sq6500451                  34.000000        0.029412 sq6500
sq6500452                  34.000000        0.029412 sq6500
sq6500453                  34.000000        0.029412 sq6500
sq6500454                  34.000000        0.029412 sq6500
sq6500455                  33.000000        0.030303 sq6500
sq6500456                  33.000000        0.030303 sq6500
sq6500457                  33.000000        0.030303 sq6500
sq6500458                  32.000000        0.031250 sq6500
sq6500459                  32.000000        0.031250 sq6500
sq6500460                  32.000000        0.031250 sq6500
sq6500461                  32.000000        0.031250 sq6500
sq6500462                  31.000000        0.032258 sq6500
sq6500463                  31.000000        0.032258 sq6500
sq6500464                  31.000000        0.032258 sq6500
sq6500465                  32.000000        0.031250 sq6500
sq6500466                  37.000000        0.027027 sq6500
sq6500467                  34.000000        0.029412 sq6500
sq6500468                  32.000000        0.031250 sq6500