pcf
* control data
restart estimation
         0      35965          0          0         15
         1          1     single      point          1          0          0 noobsreref
 10.000000   2.000000   0.300000   0.030000         10        999 nolamforgive noderforgive
  5.000000   5.000000   0.001000          0          0
  0.100000          1          0        aui nosenreuse boundscale
        30   0.005000          4          4   0.005000          4        0.0          1       -1.0
         1          1          1          0    jcosave verboserec nojcosaveitn reisaveitn noparsaveitn noparsaverun
* lsqr
         1
    0.0001     0.0001     1000.0          0
         0
* parameter groups
* observation groups
sqa6491
sqb6491
sq6470
sq6500
sq6540
sstruax
sorad
settruax
vsq6500
vsq6470
vsqa6491
vsqb6491
vsq6540
vsq7948
vsq65145
* observation data
sqa64911                    5.100000        0.613709 sqa6491
sqa64912                    1.900000        1.556711 sqa6491
sqa64913                    2.200000        1.267569 sqa6491
sqa64914                    2.300000        1.199985 sqa6491
sqa64915                    2.300000        1.199985 sqa6491
sqa64916                    2.700000        1.006419 sqa6491
sqa64917                    2.500000        1.090881 sqa6491
sqa64918                    2.500000        1.090881 sqa6491
sqa64919                    2.500000        1.090881 sqa6491
sqa649110                   2.300000        1.199985 sqa6491
sqa649111                   2.600000        1.046139 sqa6491
sqa649112                   2.500000        1.090881 sqa6491
sqa649113                   2.600000        1.046139 sqa6491
sqa649114                   2.700000        1.006419 sqa6491
sqa649115                   2.800000        0.970896 sqa6491
sqa649116                   2.800000        0.970896 sqa6491
sqa649117                   4.700000        0.646089 sqa6491
sqa649118                   3.600000        0.780511 sqa6491
sqa649119                   3.300000        0.837363 sqa6491
sqa649120                   3.600000        0.780511 sqa6491
sqa649121                   4.200000        0.696707 sqa6491
sqa649122                   4.900000        0.629153 sqa6491
sqa649123                   3.700000        0.764174 sqa6491
sqa649124                   3.500000        0.798054 sqa6491
sqa649125                   3.400000        0.816947 sqa6491
sqa649126                   3.400000        0.816947 sqa6491
sqa649127                   3.400000        0.816947 sqa6491
sqa649128                   3.400000        0.816947 sqa6491
sqa649129                   3.400000        0.816947 sqa6491
sqa649130                   3.400000        0.816947 sqa6491
sqa649131                   3.500000        0.798054 sqa6491
sqa649132                   3.800000        0.748915 sqa6491
sqa649133                   3.600000        0.780511 sqa6491
sqa649134                   3.300000        0.837363 sqa6491
sqa649135                   3.200000        0.859503 sqa6491
sqa649136                   3.300000        0.837363 sqa6491
sqa649137                   3.200000        0.859503 sqa6491
sqa649138                   3.100000        0.883607 sqa6491
sqa649139                   3.200000        0.859503 sqa6491
sqa649140                   3.100000        0.883607 sqa6491
sqa649141                   2.900000        0.938918 sqa6491
sqa649142                   2.900000        0.938918 sqa6491
sqa649143                   2.800000        0.970896 sqa6491
sqa649144                   2.700000        1.006419 sqa6491
sqa649145                   2.700000        1.006419 sqa6491
sqa649146                   2.600000        1.046139 sqa6491
sqa649147                   2.500000        1.090881 sqa6491
sqa649148                   2.400000        1.141702 sqa6491
sqa649149                   2.400000        1.141702 sqa6491
sqa649150                   2.400000        1.141702 sqa6491
sqa649151                   2.400000        1.141702 sqa6491
sqa649152                   2.600000        1.046139 sqa6491
sqa649153                   2.700000        1.006419 sqa6491
sqa649154                   2.700000        1.006419 sqa6491
sqa649155                   2.700000        1.006419 sqa6491
sqa649156                   2.700000        1.006419 sqa6491
sqa649157                   2.600000        1.046139 sqa6491
sqa649158                   2.500000        1.090881 sqa6491
sqa649159                   2.700000        1.006419 sqa6491
sqa649160                   3.100000        0.883607 sqa6491
sqa649161                   2.800000        0.970896 sqa6491
sqa649162                   2.700000        1.006419 sqa6491
sqa649163                   2.600000        1.046139 sqa6491
sqa649164                   2.600000        1.046139 sqa6491
sqa649165                   2.500000        1.090881 sqa6491
sqa649166                   2.500000        1.090881 sqa6491
sqa649167                   2.400000        1.141702 sqa6491
sqa649168                   2.400000        1.141702 sqa6491
sqa649169                   2.300000        1.199985 sqa6491
sqa649170                   2.200000        1.267569 sqa6491
sqa649171                   2.200000        1.267569 sqa6491
sqa649172                   2.200000        1.267569 sqa6491
sqa649173                   2.200000        1.267569 sqa6491
sqa649174                   2.300000        1.199985 sqa6491
sqa649175                   2.200000        1.267569 sqa6491
sqa649176                   2.200000        1.267569 sqa6491
sqa649177                   2.100000        1.346958 sqa6491
sqa649178                   2.100000        1.346958 sqa6491
sqa649179                   2.100000        1.346958 sqa6491
sqa649180                   2.000000        1.441655 sqa6491
sqa649181                   2.000000        1.441655 sqa6491
sqa649182                   1.900000        1.556711 sqa6491
sqa649183                   1.900000        1.556711 sqa6491
sqa649184                   1.800000        1.699691 sqa6491
sqa649185                   1.800000        1.699691 sqa6491
sqa649186                   1.700000        1.882472 sqa6491
sqa649187                   1.700000        1.882472 sqa6491
sqa649188                   1.800000        1.699691 sqa6491
sqa649189                   1.800000        1.699691 sqa6491
sqa649190                   1.900000        1.556711 sqa6491
sqa649191                   1.900000        1.556711 sqa6491
sqa649192                   1.900000        1.556711 sqa6491
sqa649193                   1.900000        1.556711 sqa6491
sqa649194                   1.900000        1.556711 sqa6491
sqa649195                   2.100000        1.346958 sqa6491
sqa649196                   2.200000        1.267569 sqa6491
sqa649197                   2.500000        1.090881 sqa6491
sqa649198                   2.300000        1.199985 sqa6491
sqa649199                   2.300000        1.199985 sqa6491
sqa6491100                  2.300000        1.199985 sqa6491
sqa6491101                  2.400000        1.141702 sqa6491
sqa6491102                  2.600000        1.046139 sqa6491
sqa6491103                  2.800000        0.970896 sqa6491
sqa6491104                  2.700000        1.006419 sqa6491
sqa6491105                  2.600000        1.046139 sqa6491
sqa6491106                  2.500000        1.090881 sqa6491
sqa6491107                  2.600000        1.046139 sqa6491
sqa6491108                  2.700000        1.006419 sqa6491
sqa6491109                  3.200000        0.859503 sqa6491
sqa6491110                 16.000000        0.360666 sqa6491
sqa6491111                  3.700000        0.764174 sqa6491
sqa6491112                  2.800000        0.970896 sqa6491
sqa6491113                  2.700000        1.006419 sqa6491
sqa6491114                  2.500000        1.090881 sqa6491
sqa6491115                  2.400000        1.141702 sqa6491
sqa6491116                  2.400000        1.141702 sqa6491
sqa6491117                  6.400000        0.538661 sqa6491
sqa6491118                  3.200000        0.859503 sqa6491
sqa6491119                  2.500000        1.090881 sqa6491
sqa6491120                  2.500000        1.090881 sqa6491
sqa6491121                  2.400000        1.141702 sqa6491
sqa6491122                  2.400000        1.141702 sqa6491
sqa6491123                  2.500000        1.090881 sqa6491
sqa6491124                  2.500000        1.090881 sqa6491
sqa6491125                  2.700000        1.006419 sqa6491
sqa6491126                  2.600000        1.046139 sqa6491
sqa6491127                  2.500000        1.090881 sqa6491
sqa6491128                  2.400000        1.141702 sqa6491
sqa6491129                  4.200000        0.696707 sqa6491
sqa6491130                  3.100000        0.883607 sqa6491
sqa6491131                  3.300000        0.837363 sqa6491
sqa6491132                  5.400000        0.592914 sqa6491
sqa6491133                  3.500000        0.798054 sqa6491
sqa6491134                  2.700000        1.006419 sqa6491
sqa6491135                  2.700000        1.006419 sqa6491
sqa6491136                  2.600000        1.046139 sqa6491
sqa6491137                  2.700000        1.006419 sqa6491
sqa6491138                  2.400000        1.141702 sqa6491
sqa6491139                  2.400000        1.141702 sqa6491
sqa6491140                  2.400000        1.141702 sqa6491
sqa6491141                  2.500000        1.090881 sqa6491
sqa6491142                  2.400000        1.141702 sqa6491
sqa6491143                  2.400000        1.141702 sqa6491
sqa6491144                  2.400000        1.141702 sqa6491
sqa6491145                  2.300000        1.199985 sqa6491
sqa6491146                  2.300000        1.199985 sqa6491
sqa6491147                  2.500000        1.090881 sqa6491
sqa6491148                  2.700000        1.006419 sqa6491
sqa6491149                  2.700000        1.006419 sqa6491
sqa6491150                  2.400000        1.141702 sqa6491
sqa6491151                  2.400000        1.141702 sqa6491
sqa6491152                  2.400000        1.141702 sqa6491
sqa6491153                  2.600000        1.046139 sqa6491
sqa6491154                  7.000000        0.513861 sqa6491
sqa6491155                  3.500000        0.798054 sqa6491
sqa6491156                  2.700000        1.006419 sqa6491
sqa6491157                  2.600000        1.046139 sqa6491
sqa6491158                  2.400000        1.141702 sqa6491
sqa6491159                  2.400000        1.141702 sqa6491
sqa6491160                 35.000000        0.281264 sqa6491
sqa6491161                 22.000000        0.323511 sqa6491
sqa6491162                  6.500000        0.534201 sqa6491
sqa6491163                 34.000000        0.283576 sqa6491
sqa6491164                  5.900000        0.563342 sqa6491
sqa6491165                 10.000000        0.434276 sqa6491
sqa6491166                 12.000000        0.402416 sqa6491
sqa6491167                 20.000000        0.333803 sqa6491
sqa6491168                  4.300000        0.685473 sqa6491
sqa6491169                  3.700000        0.764174 sqa6491
sqa6491170                  3.200000        0.859503 sqa6491
sqa6491171                  3.000000        0.909963 sqa6491
sqa6491172                  2.800000        0.970896 sqa6491
sqa6491173                  2.800000        0.970896 sqa6491
sqa6491174                  2.800000        0.970896 sqa6491
sqa6491175                  2.700000        1.006419 sqa6491
sqa6491176                  2.500000        1.090881 sqa6491
sqa6491177                  2.500000        1.090881 sqa6491
sqa6491178                  2.400000        1.141702 sqa6491
sqa6491179                  2.300000        1.199985 sqa6491
sqa6491180                  2.300000        1.199985 sqa6491
sqa6491181                  2.300000        1.199985 sqa6491
sqa6491182                  2.300000        1.199985 sqa6491
sqa6491183                  2.400000        1.141702 sqa6491
sqa6491184                  2.500000        1.090881 sqa6491
sqa6491185                  2.500000        1.090881 sqa6491
sqa6491186                  2.500000        1.090881 sqa6491
sqa6491187                  2.700000        1.006419 sqa6491
sqa6491188                  2.700000        1.006419 sqa6491
sqa6491189                  2.700000        1.006419 sqa6491
sqa6491190                  2.600000        1.046139 sqa6491
sqa6491191                  2.500000        1.090881 sqa6491
sqa6491192                  2.600000        1.046139 sqa6491
sqa6491193                  3.200000        0.859503 sqa6491
sqa6491194                  2.900000        0.938918 sqa6491
sqa6491195                  2.500000        1.090881 sqa6491
sqa6491196                  2.300000        1.199985 sqa6491
sqa6491197                  2.500000        1.090881 sqa6491
sqa6491198                  2.500000        1.090881 sqa6491
sqa6491199                  2.400000        1.141702 sqa6491
sqa6491200                  2.300000        1.199985 sqa6491
sqa6491201                  2.300000        1.199985 sqa6491
sqa6491202                  2.300000        1.199985 sqa6491
sqa6491203                  2.400000        1.141702 sqa6491
sqa6491204                  2.400000        1.141702 sqa6491
sqa6491205                  2.300000        1.199985 sqa6491
sqa6491206                  2.300000        1.199985 sqa6491
sqa6491207                  2.500000        1.090881 sqa6491
sqa6491208                  2.600000        1.046139 sqa6491
sqa6491209                  2.700000        1.006419 sqa6491
sqa6491210                  3.500000        0.798054 sqa6491
sqa6491211                  4.600000        0.655190 sqa6491
sqa6491212                  4.400000        0.674840 sqa6491
sqa6491213                  4.000000        0.721217 sqa6491
sqa6491214                  3.700000        0.764174 sqa6491
sqa6491215                  3.400000        0.816947 sqa6491
sqa6491216                  3.300000        0.837363 sqa6491
sqa6491217                  3.700000        0.764174 sqa6491
sqa6491218                  3.700000        0.764174 sqa6491
sqa6491219                  3.300000        0.837363 sqa6491
sqa6491220                  3.000000        0.909963 sqa6491
sqa6491221                  2.900000        0.938918 sqa6491
sqa6491222                  3.300000        0.837363 sqa6491
sqa6491223                  5.600000        0.580402 sqa6491
sqa6491224                  4.000000        0.721217 sqa6491
sqa6491225                  3.600000        0.780511 sqa6491
sqa6491226                  3.100000        0.883607 sqa6491
sqa6491227                  2.800000        0.970896 sqa6491
sqa6491228                  2.800000        0.970896 sqa6491
sqa6491229                  4.100000        0.708601 sqa6491
sqa6491230                  3.200000        0.859503 sqa6491
sqa6491231                  2.900000        0.938918 sqa6491
sqa6491232                  4.300000        0.685473 sqa6491
sqa6491233                  4.900000        0.629153 sqa6491
sqa6491234                  3.600000        0.780511 sqa6491
sqa6491235                  3.200000        0.859503 sqa6491
sqa6491236                  3.100000        0.883607 sqa6491
sqa6491237                  3.500000        0.798054 sqa6491
sqa6491238                  3.100000        0.883607 sqa6491
sqa6491239                  3.100000        0.883607 sqa6491
sqa6491240                  3.000000        0.909963 sqa6491
sqa6491241                  3.000000        0.909963 sqa6491
sqa6491242                  2.600000        1.046139 sqa6491
sqa6491243                  2.500000        1.090881 sqa6491
sqa6491244                  2.400000        1.141702 sqa6491
sqa6491245                  2.400000        1.141702 sqa6491
sqa6491246                  6.100000        0.552959 sqa6491
sqa6491247                  3.800000        0.748915 sqa6491
sqa6491248                  2.900000        0.938918 sqa6491
sqa6491249                  2.700000        1.006419 sqa6491
sqa6491250                  2.800000        0.970896 sqa6491
sqa6491251                  2.700000        1.006419 sqa6491
sqa6491252                  2.800000        0.970896 sqa6491
sqa6491253                  2.900000        0.938918 sqa6491
sqa6491254                  2.900000        0.938918 sqa6491
sqa6491255                  2.900000        0.938918 sqa6491
sqa6491256                  2.800000        0.970896 sqa6491
sqa6491257                  3.000000        0.909963 sqa6491
sqa6491258                  3.100000        0.883607 sqa6491
sqa6491259                  3.100000        0.883607 sqa6491
sqa6491260                  3.300000        0.837363 sqa6491
sqa6491261                  3.500000        0.798054 sqa6491
sqa6491262                  3.400000        0.816947 sqa6491
sqa6491263                  3.100000        0.883607 sqa6491
sqa6491264                  3.000000        0.909963 sqa6491
sqa6491265                  2.900000        0.938918 sqa6491
sqa6491266                  3.200000        0.859503 sqa6491
sqa6491267                  3.200000        0.859503 sqa6491
sqa6491268                  2.900000        0.938918 sqa6491
sqa6491269                  2.800000        0.970896 sqa6491
sqa6491270                  2.700000        1.006419 sqa6491
sqa6491271                  2.700000        1.006419 sqa6491
sqa6491272                  2.600000        1.046139 sqa6491
sqa6491273                 35.000000        0.281264 sqa6491
sqa6491274                  4.000000        0.721217 sqa6491
sqa6491275                  2.800000        0.970896 sqa6491
sqa6491276                  2.400000        1.141702 sqa6491
sqa6491277                  2.300000        1.199985 sqa6491
sqa6491278                  2.200000        1.267569 sqa6491
sqa6491279                  2.300000        1.199985 sqa6491
sqa6491280                  2.400000        1.141702 sqa6491
sqa6491281                  2.300000        1.199985 sqa6491
sqa6491282                  2.500000        1.090881 sqa6491
sqa6491283                  2.500000        1.090881 sqa6491
sqa6491284                  2.800000        0.970896 sqa6491
sqa6491285                  2.500000        1.090881 sqa6491
sqa6491286                  2.400000        1.141702 sqa6491
sqa6491287                  2.400000        1.141702 sqa6491
sqa6491288                  2.800000        0.970896 sqa6491
sqa6491289                  3.000000        0.909963 sqa6491
sqa6491290                  2.700000        1.006419 sqa6491
sqa6491291                  2.600000        1.046139 sqa6491
sqa6491292                  2.500000        1.090881 sqa6491
sqa6491293                  2.600000        1.046139 sqa6491
sqa6491294                  2.700000        1.006419 sqa6491
sqa6491295                  2.600000        1.046139 sqa6491
sqa6491296                  2.500000        1.090881 sqa6491
sqa6491297                  2.500000        1.090881 sqa6491
sqa6491298                  2.200000        1.267569 sqa6491
sqa6491299                  2.200000        1.267569 sqa6491
sqa6491300                  2.200000        1.267569 sqa6491
sqa6491301                  2.100000        1.346958 sqa6491
sqa6491302                  2.100000        1.346958 sqa6491
sqa6491303                  2.200000        1.267569 sqa6491
sqa6491304                  2.200000        1.267569 sqa6491
sqa6491305                  2.200000        1.267569 sqa6491
sqa6491306                  1.900000        1.556711 sqa6491
sqa6491307                  1.900000        1.556711 sqa6491
sqa6491308                  1.900000        1.556711 sqa6491
sqa6491309                  1.900000        1.556711 sqa6491
sqa6491310                  1.900000        1.556711 sqa6491
sqa6491311                  1.900000        1.556711 sqa6491
sqa6491312                  1.800000        1.699691 sqa6491
sqa6491313                  1.800000        1.699691 sqa6491
sqa6491314                  1.700000        1.882472 sqa6491
sqa6491315                  1.700000        1.882472 sqa6491
sqa6491316                  2.100000        1.346958 sqa6491
sqa6491317                  2.000000        1.441655 sqa6491
sqa6491318                  1.900000        1.556711 sqa6491
sqa6491319                  1.800000        1.699691 sqa6491
sqa6491320                  1.900000        1.556711 sqa6491
sqa6491321                  2.100000        1.346958 sqa6491
sqa6491322                  2.100000        1.346958 sqa6491
sqa6491323                  3.500000        0.798054 sqa6491
sqa6491324                  6.300000        0.543269 sqa6491
sqa6491325                  8.200000        0.475227 sqa6491
sqa6491326                  3.300000        0.837363 sqa6491
sqa6491327                  2.800000        0.970896 sqa6491
sqa6491328                  2.400000        1.141702 sqa6491
sqa6491329                  2.300000        1.199985 sqa6491
sqa6491330                  2.800000        0.970896 sqa6491
sqa6491331                  2.800000        0.970896 sqa6491
sqa6491332                  2.700000        1.006419 sqa6491
sqa6491333                  2.700000        1.006419 sqa6491
sqa6491334                  2.500000        1.090881 sqa6491
sqa6491335                  2.400000        1.141702 sqa6491
sqa6491336                  2.300000        1.199985 sqa6491
sqa6491337                  2.300000        1.199985 sqa6491
sqa6491338                  2.300000        1.199985 sqa6491
sqa6491339                  2.300000        1.199985 sqa6491
sqa6491340                  2.300000        1.199985 sqa6491
sqa6491341                  2.200000        1.267569 sqa6491
sqa6491342                  2.200000        1.267569 sqa6491
sqa6491343                  2.200000        1.267569 sqa6491
sqa6491344                  2.200000        1.267569 sqa6491
sqa6491345                  2.200000        1.267569 sqa6491
sqa6491346                  2.300000        1.199985 sqa6491
sqa6491347                  2.200000        1.267569 sqa6491
sqa6491348                  2.200000        1.267569 sqa6491
sqa6491349                  2.200000        1.267569 sqa6491
sqa6491350                  2.100000        1.346958 sqa6491
sqa6491351                  2.100000        1.346958 sqa6491
sqa6491352                  2.100000        1.346958 sqa6491
sqa6491353                  2.100000        1.346958 sqa6491
sqa6491354                  2.000000        1.441655 sqa6491
sqa6491355                  2.000000        1.441655 sqa6491
sqa6491356                  2.000000        1.441655 sqa6491
sqa6491357                  2.100000        1.346958 sqa6491
sqa6491358                  1.900000        1.556711 sqa6491
sqa6491359                  1.900000        1.556711 sqa6491
sqa6491360                  1.800000        1.699691 sqa6491
sqa6491361                  1.800000        1.699691 sqa6491
sqa6491362                  1.800000        1.699691 sqa6491
sqa6491363                  1.800000        1.699691 sqa6491
sqa6491364                  1.800000        1.699691 sqa6491
sqa6491365                  1.800000        1.699691 sqa6491
sqa6491366                  1.700000        1.882472 sqa6491
sqa6491367                  1.700000        1.882472 sqa6491
sqa6491368                  1.700000        1.882472 sqa6491
sqa6491369                  2.000000        1.441655 sqa6491
sqa6491370                  2.200000        1.267569 sqa6491
sqa6491371                  2.100000        1.346958 sqa6491
sqa6491372                  2.000000        1.441655 sqa6491
sqa6491373                  2.100000        1.346958 sqa6491
sqa6491374                  2.100000        1.346958 sqa6491
sqa6491375                  2.000000        1.441655 sqa6491
sqa6491376                  2.400000        1.141702 sqa6491
sqa6491377                  3.500000        0.798054 sqa6491
sqa6491378                  2.900000        0.938918 sqa6491
sqa6491379                  2.500000        1.090881 sqa6491
sqa6491380                  2.400000        1.141702 sqa6491
sqa6491381                  2.500000        1.090881 sqa6491
sqa6491382                  2.400000        1.141702 sqa6491
sqa6491383                  2.200000        1.267569 sqa6491
sqa6491384                  2.300000        1.199985 sqa6491
sqa6491385                  2.400000        1.141702 sqa6491
sqa6491386                  2.300000        1.199985 sqa6491
sqa6491387                  2.200000        1.267569 sqa6491
sqa6491388                  2.100000        1.346958 sqa6491
sqa6491389                  2.100000        1.346958 sqa6491
sqa6491390                  2.100000        1.346958 sqa6491
sqa6491391                  1.900000        1.556711 sqa6491
sqa6491392                  1.900000        1.556711 sqa6491
sqa6491393                  1.900000        1.556711 sqa6491
sqa6491394                  1.900000        1.556711 sqa6491
sqa6491395                  2.000000        1.441655 sqa6491
sqa6491396                  2.100000        1.346958 sqa6491
sqa6491397                  2.100000        1.346958 sqa6491
sqa6491398                  2.200000        1.267569 sqa6491
sqa6491399                  2.300000        1.199985 sqa6491
sqa6491400                  2.400000        1.141702 sqa6491
sqa6491401                  2.700000        1.006419 sqa6491
sqa6491402                  3.000000        0.909963 sqa6491
sqa6491403                  2.900000        0.938918 sqa6491
sqa6491404                  2.900000        0.938918 sqa6491
sqa6491405                  2.900000        0.938918 sqa6491
sqa6491406                  3.000000        0.909963 sqa6491
sqa6491407                  2.500000        1.090881 sqa6491
sqa6491408                  2.400000        1.141702 sqa6491
sqa6491409                  2.300000        1.199985 sqa6491
sqa6491410                  2.200000        1.267569 sqa6491
sqa6491411                  2.100000        1.346958 sqa6491
sqa6491412                  2.100000        1.346958 sqa6491
sqa6491413                  2.100000        1.346958 sqa6491
sqa6491414                  2.100000        1.346958 sqa6491
sqa6491415                  2.300000        1.199985 sqa6491
sqa6491416                  2.300000        1.199985 sqa6491
sqa6491417                  2.300000        1.199985 sqa6491
sqa6491418                  2.700000        1.006419 sqa6491
sqa6491419                  2.800000        0.970896 sqa6491
sqa6491420                  2.700000        1.006419 sqa6491
sqa6491421                  2.600000        1.046139 sqa6491
sqa6491422                  2.600000        1.046139 sqa6491
sqa6491423                  2.600000        1.046139 sqa6491
sqa6491424                  3.500000        0.798054 sqa6491
sqa6491425                  3.300000        0.837363 sqa6491
sqa6491426                  3.000000        0.909963 sqa6491
sqa6491427                  2.800000        0.970896 sqa6491
sqa6491428                  2.600000        1.046139 sqa6491
sqa6491429                  2.500000        1.090881 sqa6491
sqa6491430                  2.500000        1.090881 sqa6491
sqa6491431                  2.400000        1.141702 sqa6491
sqa6491432                  2.400000        1.141702 sqa6491
sqa6491433                  2.400000        1.141702 sqa6491
sqa6491434                  2.400000        1.141702 sqa6491
sqa6491435                  2.400000        1.141702 sqa6491
sqa6491436                  2.400000        1.141702 sqa6491
sqa6491437                  2.400000        1.141702 sqa6491
sqa6491438                  2.600000        1.046139 sqa6491
sqa6491439                  2.700000        1.006419 sqa6491
sqa6491440                  2.700000        1.006419 sqa6491
sqa6491441                  2.700000        1.006419 sqa6491
sqa6491442                  2.700000        1.006419 sqa6491
sqa6491443                  2.700000        1.006419 sqa6491
sqa6491444                  2.700000        1.006419 sqa6491
sqa6491445                  2.700000        1.006419 sqa6491
sqa6491446                  2.700000        1.006419 sqa6491
sqa6491447                  2.600000        1.046139 sqa6491
sqa6491448                  2.500000        1.090881 sqa6491
sqa6491449                  2.500000        1.090881 sqa6491
sqa6491450                  2.400000        1.141702 sqa6491
sqa6491451                  2.400000        1.141702 sqa6491
sqa6491452                  2.300000        1.199985 sqa6491
sqa6491453                  2.300000        1.199985 sqa6491
sqa6491454                  2.200000        1.267569 sqa6491
sqa6491455                  2.200000        1.267569 sqa6491
sqa6491456                  2.200000        1.267569 sqa6491
sqa6491457                  2.200000        1.267569 sqa6491
sqa6491458                  2.200000        1.267569 sqa6491
sqa6491459                  2.200000        1.267569 sqa6491
sqa6491460                  2.200000        1.267569 sqa6491
sqa6491461                  2.100000        1.346958 sqa6491
sqa6491462                  2.100000        1.346958 sqa6491
sqa6491463                  2.100000        1.346958 sqa6491
sqa6491464                  2.100000        1.346958 sqa6491
sqa6491465                  2.000000        1.441655 sqa6491
sqa6491466                  2.100000        1.346958 sqa6491
sqa6491467                  2.100000        1.346958 sqa6491
sqa6491468                  2.100000        1.346958 sqa6491
sqa6491469                  2.100000        1.346958 sqa6491
sqa6491470                  2.100000        1.346958 sqa6491
sqa6491471                  2.100000        1.346958 sqa6491
sqa6491472                  2.100000        1.346958 sqa6491
sqa6491473                  2.100000        1.346958 sqa6491
sqa6491474                  2.100000        1.346958 sqa6491
sqa6491475                  2.100000        1.346958 sqa6491
sqa6491476                  2.100000        1.346958 sqa6491
sqa6491477                  2.100000        1.346958 sqa6491