pcf
* control data
             restart          estimation
         6         8         1         0         1
         1         1              single               point         1
   2.000000E+01  -3.000000E+00   3.000000E-01   1.000000E-02        -7
   1.000000E+01   1.000000E+01   1.000000E-03
   1.000000E-01
        30   1.000000E-02         3         3   1.000000E-02         3
         0         0         0
* singular value decomposition
         1
  10000000    1.000000E-06
1
* parameter groups
pargp                  relative              1.0000000000E-02      0.0 switch                2.0000000000E+00      parabolic             1.0000000000E-05      5.0000000000E-01      smaller
* parameter data
jhcoef_fac            log                   factor                1.0000000000E+00      1.1000000000E-10      1.1000000000E+10      pargp                 1.0000000000E+00      0.0000000000E+00      1
pfd_fac               log                   factor                1.0000000000E+00      1.1000000000E-10      1.1000000000E+10      pargp                 1.0000000000E+00      0.0000000000E+00      1
rnadj_fac             log                   factor                1.0000000000E+00      1.1000000000E-10      1.1000000000E+10      pargp                 1.0000000000E+00      0.0000000000E+00      1
s2gw_fac              log                   factor                1.0000000000E+00      1.1000000000E-10      1.1000000000E+10      pargp                 1.0000000000E+00      0.0000000000E+00      1
s2gwe_fac             log                   factor                1.0000000000E+00      1.1000000000E-10      1.1000000000E+10      pargp                 1.0000000000E+00      0.0000000000E+00      1
snwadj_fac            log                   factor                1.0000000000E+00      1.1000000000E-10      1.1000000000E+10      pargp                 1.0000000000E+00      0.0000000000E+00      1
* observation groups
obgnme
* observation data
flow_dur_sim1         1.0000000000E+10      1.0000000000E+00      obgnme
flow_dur_sim2         1.0000000000E+10      1.0000000000E+00      obgnme
flow_dur_sim3         1.0000000000E+10      1.0000000000E+00      obgnme
flow_dur_sim4         1.0000000000E+10      1.0000000000E+00      obgnme
flow_dur_sim5         1.0000000000E+10      1.0000000000E+00      obgnme
flow_dur_sim6         1.0000000000E+10      1.0000000000E+00      obgnme
flow_dur_sim7         1.0000000000E+10      1.0000000000E+00      obgnme
flow_dur_sim8         1.0000000000E+10      1.0000000000E+00      obgnme
* model command line
model.bat
* model input/output
par2par_base.tpl par2par_base.dat
sim_vals_flowdur.ins hi_test_flow_duration_sim_CUSTOM_output.txt
