pcf
* control data
restart estimation
       6   10356       4       0       2 nparsec=0 nequation=0
     1     1   single   point   1   0   0
10.0   2.0    0.3    0.03    10  999
5.0   5.0   1.0e-3
0.1   aui
30   .005  4   4  .005   4
1    1    1
* parameter groups
prcp         relative      1.00000E-02   1.00000E-05  switch       2.0000      outside_pts
evap         relative      1.00000E-02   1.00000E-05  switch       2.0000      outside_pts
soilzone     relative      1.00000E-02   1.00000E-05  switch       2.0000      outside_pts
ssres        relative      1.00000E-02   1.00000E-05  switch       2.0000      outside_pts
* parameter data
jhcoef_fac   log    factor        1.0000       0.75000        1.5000      evap            1.0000        0.0000        1
rnadj_fac    log    factor        1.0000       0.75000        1.5000      prcp            1.0000        0.0000        1
snwadj_fac   log    factor        1.0000       0.75000        1.5000      prcp            1.0000        0.0000        1
pfd_fac      log    factor        1.0000       0.75000        1.5000      soilzone        1.0000        0.0000        1
s2gw_fac     log    factor        1.0000       0.75000        1.5000      ssres           1.0000        0.0000        1
s2gwe_fac    log    factor        1.0000       0.75000        1.5000      ssres           1.0000        0.0000        1
* observation groups
sq6500l
sq6500t
* observation data
sq6500l_1              3.713596         1.00000      sq6500l
sq6500l_2              3.713596         1.00000      sq6500l
sq6500l_3              3.713596         1.00000      sq6500l
sq6500l_4              3.713596         1.00000      sq6500l
sq6500l_5              3.688905         1.00000      sq6500l
sq6500l_6              3.688905         1.00000      sq6500l
sq6500l_7              3.688905         1.00000      sq6500l
sq6500l_8              3.688905         1.00000      sq6500l
sq6500l_9              3.555377         1.00000      sq6500l
sq6500l_10             3.401231         1.00000      sq6500l
sq6500l_11             3.401231         1.00000      sq6500l
sq6500l_12             3.401231         1.00000      sq6500l
sq6500l_13             3.401231         1.00000      sq6500l
sq6500l_14             3.401231         1.00000      sq6500l
sq6500l_15             3.401231         1.00000      sq6500l
sq6500l_16             3.295874         1.00000      sq6500l
sq6500l_17             3.295874         1.00000      sq6500l
sq6500l_18             3.367330         1.00000      sq6500l
sq6500l_19             3.434020         1.00000      sq6500l
sq6500l_20             3.434020         1.00000      sq6500l
sq6500l_21             3.434020         1.00000      sq6500l
sq6500l_22             3.465767         1.00000      sq6500l
sq6500l_23             3.526390         1.00000      sq6500l
sq6500l_24             3.526390         1.00000      sq6500l
sq6500l_25             3.526390         1.00000      sq6500l
sq6500l_26             3.555377         1.00000      sq6500l
sq6500l_27             3.555377         1.00000      sq6500l
sq6500l_28             3.555377         1.00000      sq6500l
sq6500l_29             3.555377         1.00000      sq6500l
sq6500l_30             3.555377         1.00000      sq6500l
sq6500l_31             3.555377         1.00000      sq6500l
sq6500l_32             3.555377         1.00000      sq6500l
sq6500l_33             3.555377         1.00000      sq6500l
sq6500l_34             3.526390         1.00000      sq6500l
sq6500l_35             3.496538         1.00000      sq6500l
sq6500l_36             3.496538         1.00000      sq6500l
sq6500l_37             3.465767         1.00000      sq6500l
sq6500l_38             3.496538         1.00000      sq6500l
sq6500l_39             3.496538         1.00000      sq6500l
sq6500l_40             3.465767         1.00000      sq6500l
sq6500l_41             3.465767         1.00000      sq6500l
sq6500l_42             3.434020         1.00000      sq6500l
sq6500l_43             3.465767         1.00000      sq6500l
sq6500l_44             3.434020         1.00000      sq6500l
sq6500l_45             3.434020         1.00000      sq6500l
sq6500l_46             3.434020         1.00000      sq6500l
sq6500l_47             3.401231         1.00000      sq6500l
sq6500l_48             3.332240         1.00000      sq6500l
sq6500l_49             4.330747         1.00000      sq6500l
sq6500l_50             5.147501         1.00000      sq6500l
sq6500l_51             5.257501         1.00000      sq6500l
sq6500l_52             5.267863         1.00000      sq6500l
sq6500l_53             4.553887         1.00000      sq6500l
sq6500l_54             4.330747         1.00000      sq6500l
sq6500l_55             4.204708         1.00000      sq6500l
sq6500l_56             4.290473         1.00000      sq6500l
sq6500l_57             4.430829         1.00000      sq6500l
sq6500l_58             4.356722         1.00000      sq6500l
sq6500l_59             4.262694         1.00000      sq6500l
sq6500l_60             4.189670         1.00000      sq6500l
sq6500l_61             4.060460         1.00000      sq6500l
sq6500l_62             4.007351         1.00000      sq6500l
sq6500l_63             4.043069         1.00000      sq6500l
sq6500l_64             4.204708         1.00000      sq6500l
sq6500l_65             4.477348         1.00000      sq6500l
sq6500l_66             4.442663         1.00000      sq6500l
sq6500l_67             4.406732         1.00000      sq6500l
sq6500l_68             4.330747         1.00000      sq6500l
sq6500l_69             4.248509         1.00000      sq6500l
sq6500l_70             4.158899         1.00000      sq6500l
sq6500l_71             4.110890         1.00000      sq6500l
sq6500l_72             4.060460         1.00000      sq6500l
sq6500l_73             3.970311         1.00000      sq6500l
sq6500l_74             3.951263         1.00000      sq6500l
sq6500l_75             3.970311         1.00000      sq6500l
sq6500l_76             3.931845         1.00000      sq6500l
sq6500l_77             3.912043         1.00000      sq6500l
sq6500l_78             3.891841         1.00000      sq6500l
sq6500l_79             3.912043         1.00000      sq6500l
sq6500l_80             3.970311         1.00000      sq6500l
sq6500l_81             3.931845         1.00000      sq6500l
sq6500l_82             3.931845         1.00000      sq6500l
sq6500l_83             3.951263         1.00000      sq6500l
sq6500l_84             4.110890         1.00000      sq6500l
sq6500l_85             4.043069         1.00000      sq6500l
sq6500l_86             3.970311         1.00000      sq6500l
sq6500l_87             4.060460         1.00000      sq6500l
sq6500l_88             4.189670         1.00000      sq6500l
sq6500l_89             4.174403         1.00000      sq6500l
sq6500l_90             4.094361         1.00000      sq6500l
sq6500l_91             4.276680         1.00000      sq6500l
sq6500l_92             4.369461         1.00000      sq6500l
sq6500l_93             4.430829         1.00000      sq6500l
sq6500l_94             4.276680         1.00000      sq6500l
sq6500l_95             4.158899         1.00000      sq6500l
sq6500l_96             4.127151         1.00000      sq6500l
sq6500l_97             4.110890         1.00000      sq6500l
sq6500l_98             4.077554         1.00000      sq6500l
sq6500l_99             4.060460         1.00000      sq6500l
sq6500l_100            4.043069         1.00000      sq6500l
sq6500l_101            4.043069         1.00000      sq6500l
sq6500l_102            4.025370         1.00000      sq6500l
sq6500l_103            3.970311         1.00000      sq6500l
sq6500l_104            3.989002         1.00000      sq6500l
sq6500l_105            3.970311         1.00000      sq6500l
sq6500l_106            3.951263         1.00000      sq6500l
sq6500l_107            3.891841         1.00000      sq6500l
sq6500l_108            3.912043         1.00000      sq6500l
sq6500l_109            3.891841         1.00000      sq6500l
sq6500l_110            3.931845         1.00000      sq6500l
sq6500l_111            3.951263         1.00000      sq6500l
sq6500l_112            3.912043         1.00000      sq6500l
sq6500l_113            3.871222         1.00000      sq6500l
sq6500l_114            3.850169         1.00000      sq6500l
sq6500l_115            3.850169         1.00000      sq6500l
sq6500l_116            3.828663         1.00000      sq6500l
sq6500l_117            3.784212         1.00000      sq6500l
sq6500l_118            3.784212         1.00000      sq6500l
sq6500l_119            3.761223         1.00000      sq6500l
sq6500l_120            3.828663         1.00000      sq6500l
sq6500l_121            3.806685         1.00000      sq6500l
sq6500l_122            3.806685         1.00000      sq6500l
sq6500l_123            3.828663         1.00000      sq6500l
sq6500l_124            3.713596         1.00000      sq6500l
sq6500l_125            3.688905         1.00000      sq6500l
sq6500l_126            3.663587         1.00000      sq6500l
sq6500l_127            3.761223         1.00000      sq6500l
sq6500l_128            3.806685         1.00000      sq6500l
sq6500l_129            3.850169         1.00000      sq6500l
sq6500l_130            3.761223         1.00000      sq6500l
sq6500l_131            3.828663         1.00000      sq6500l
sq6500l_132            4.007351         1.00000      sq6500l
sq6500l_133            3.850169         1.00000      sq6500l
sq6500l_134            3.806685         1.00000      sq6500l
sq6500l_135            3.761223         1.00000      sq6500l
sq6500l_136            3.737693         1.00000      sq6500l
sq6500l_137            3.737693         1.00000      sq6500l
sq6500l_138            3.688905         1.00000      sq6500l
sq6500l_139            3.688905         1.00000      sq6500l
sq6500l_140            3.688905         1.00000      sq6500l
sq6500l_141            3.663587         1.00000      sq6500l
sq6500l_142            3.688905         1.00000      sq6500l
sq6500l_143            3.663587         1.00000      sq6500l
sq6500l_144            3.737693         1.00000      sq6500l
sq6500l_145            3.761223         1.00000      sq6500l
sq6500l_146            3.737693         1.00000      sq6500l
sq6500l_147            3.688905         1.00000      sq6500l
sq6500l_148            3.737693         1.00000      sq6500l
sq6500l_149            3.761223         1.00000      sq6500l
sq6500l_150            3.713596         1.00000      sq6500l
sq6500l_151            3.688905         1.00000      sq6500l
sq6500l_152            3.663587         1.00000      sq6500l
sq6500l_153            3.663587         1.00000      sq6500l
sq6500l_154            3.637613         1.00000      sq6500l
sq6500l_155            3.637613         1.00000      sq6500l
sq6500l_156            3.637613         1.00000      sq6500l
sq6500l_157            3.583547         1.00000      sq6500l
sq6500l_158            3.526390         1.00000      sq6500l
sq6500l_159            3.555377         1.00000      sq6500l
sq6500l_160            3.583547         1.00000      sq6500l
sq6500l_161            3.663587         1.00000      sq6500l
sq6500l_162            3.637613         1.00000      sq6500l
sq6500l_163            3.688905         1.00000      sq6500l
sq6500l_164            3.688905         1.00000      sq6500l
sq6500l_165            3.663587         1.00000      sq6500l
sq6500l_166            3.610945         1.00000      sq6500l
sq6500l_167            3.610945         1.00000      sq6500l
sq6500l_168            3.583547         1.00000      sq6500l
sq6500l_169            3.555377         1.00000      sq6500l
sq6500l_170            3.806685         1.00000      sq6500l
sq6500l_171            3.610945         1.00000      sq6500l
sq6500l_172            3.637613         1.00000      sq6500l
sq6500l_173            3.688905         1.00000      sq6500l
sq6500l_174            3.713596         1.00000      sq6500l
sq6500l_175            3.784212         1.00000      sq6500l
sq6500l_176            3.931845         1.00000      sq6500l
sq6500l_177            3.871222         1.00000      sq6500l
sq6500l_178            3.912043         1.00000      sq6500l
sq6500l_179            3.850169         1.00000      sq6500l
sq6500l_180            3.806685         1.00000      sq6500l
sq6500l_181            3.784212         1.00000      sq6500l
sq6500l_182            3.784212         1.00000      sq6500l
sq6500l_183            3.784212         1.00000      sq6500l
sq6500l_184            3.761223         1.00000      sq6500l
sq6500l_185            3.761223         1.00000      sq6500l
sq6500l_186            3.761223         1.00000      sq6500l
sq6500l_187            3.713596         1.00000      sq6500l
sq6500l_188            3.688905         1.00000      sq6500l
sq6500l_189            3.688905         1.00000      sq6500l
sq6500l_190            3.737693         1.00000      sq6500l
sq6500l_191            3.713596         1.00000      sq6500l
sq6500l_192            3.688905         1.00000      sq6500l
sq6500l_193            3.583547         1.00000      sq6500l
sq6500l_194            3.526390         1.00000      sq6500l
sq6500l_195            3.526390         1.00000      sq6500l
sq6500l_196            3.526390         1.00000      sq6500l
sq6500l_197            3.610945         1.00000      sq6500l
sq6500l_198            3.526390         1.00000      sq6500l
sq6500l_199            3.434020         1.00000      sq6500l
sq6500l_200            3.401231         1.00000      sq6500l
sq6500l_201            3.401231         1.00000      sq6500l
sq6500l_202            3.526390         1.00000      sq6500l
sq6500l_203            6.104795         1.00000      sq6500l
sq6500l_204            5.442422         1.00000      sq6500l
sq6500l_205            4.418853         1.00000      sq6500l
sq6500l_206            4.158899         1.00000      sq6500l
sq6500l_207            4.007351         1.00000      sq6500l
sq6500l_208            3.951263         1.00000      sq6500l
sq6500l_209            3.912043         1.00000      sq6500l
sq6500l_210            3.828663         1.00000      sq6500l
sq6500l_211            3.761223         1.00000      sq6500l
sq6500l_212            3.737693         1.00000      sq6500l
sq6500l_213            3.713596         1.00000      sq6500l
sq6500l_214            3.688905         1.00000      sq6500l
sq6500l_215            3.610945         1.00000      sq6500l
sq6500l_216            3.610945         1.00000      sq6500l
sq6500l_217            3.555377         1.00000      sq6500l
sq6500l_218            3.526390         1.00000      sq6500l
sq6500l_219            3.555377         1.00000      sq6500l
sq6500l_220            3.465767         1.00000      sq6500l
sq6500l_221            3.555377         1.00000      sq6500l
sq6500l_222            4.025370         1.00000      sq6500l
sq6500l_223            3.806685         1.00000      sq6500l
sq6500l_224            3.663587         1.00000      sq6500l
sq6500l_225            3.583547         1.00000      sq6500l
sq6500l_226            3.663587         1.00000      sq6500l
sq6500l_227            3.637613         1.00000      sq6500l
sq6500l_228            3.610945         1.00000      sq6500l
sq6500l_229            3.610945         1.00000      sq6500l
sq6500l_230            3.583547         1.00000      sq6500l
sq6500l_231            3.583547         1.00000      sq6500l
sq6500l_232            3.583547         1.00000      sq6500l
sq6500l_233            3.637613         1.00000      sq6500l
sq6500l_234            3.850169         1.00000      sq6500l
sq6500l_235            3.891841         1.00000      sq6500l
sq6500l_236            3.688905         1.00000      sq6500l
sq6500l_237            3.610945         1.00000      sq6500l
sq6500l_238            3.663587         1.00000      sq6500l
sq6500l_239            3.713596         1.00000      sq6500l
sq6500l_240            3.663587         1.00000      sq6500l
sq6500l_241            3.610945         1.00000      sq6500l
sq6500l_242            3.583547         1.00000      sq6500l
sq6500l_243            3.555377         1.00000      sq6500l
sq6500l_244            3.555377         1.00000      sq6500l
sq6500l_245            4.158899         1.00000      sq6500l
sq6500l_246            3.871222         1.00000      sq6500l
sq6500l_247            3.663587         1.00000      sq6500l
sq6500l_248            3.610945         1.00000      sq6500l
sq6500l_249            4.736207         1.00000      sq6500l
sq6500l_250            4.234121         1.00000      sq6500l
sq6500l_251            3.989002         1.00000      sq6500l
sq6500l_252            3.806685         1.00000      sq6500l
sq6500l_253            3.713596         1.00000      sq6500l
sq6500l_254            3.663587         1.00000      sq6500l
sq6500l_255            3.637613         1.00000      sq6500l
sq6500l_256            3.663587         1.00000      sq6500l
sq6500l_257            3.784212         1.00000      sq6500l
sq6500l_258            3.713596         1.00000      sq6500l
sq6500l_259            3.663587         1.00000      sq6500l
sq6500l_260            3.637613         1.00000      sq6500l
sq6500l_261            3.637613         1.00000      sq6500l
sq6500l_262            3.737693         1.00000      sq6500l
sq6500l_263            3.951263         1.00000      sq6500l
sq6500l_264            3.912043         1.00000      sq6500l
sq6500l_265            3.784212         1.00000      sq6500l
sq6500l_266            3.850169         1.00000      sq6500l
sq6500l_267            3.828663         1.00000      sq6500l
sq6500l_268            3.761223         1.00000      sq6500l
sq6500l_269            3.761223         1.00000      sq6500l
sq6500l_270            3.912043         1.00000      sq6500l
sq6500l_271            3.828663         1.00000      sq6500l
sq6500l_272            3.761223         1.00000      sq6500l
sq6500l_273            3.688905         1.00000      sq6500l
sq6500l_274            3.688905         1.00000      sq6500l
sq6500l_275            3.784212         1.00000      sq6500l
sq6500l_276            3.713596         1.00000      sq6500l
sq6500l_277            3.688905         1.00000      sq6500l
sq6500l_278            3.663587         1.00000      sq6500l
sq6500l_279            3.761223         1.00000      sq6500l
sq6500l_280            3.931845         1.00000      sq6500l
sq6500l_281            3.850169         1.00000      sq6500l
sq6500l_282            4.276680         1.00000      sq6500l
sq6500l_283            4.110890         1.00000      sq6500l
sq6500l_284            3.931845         1.00000      sq6500l
sq6500l_285            3.891841         1.00000      sq6500l
sq6500l_286            3.806685         1.00000      sq6500l
sq6500l_287            3.784212         1.00000      sq6500l
sq6500l_288            3.931845         1.00000      sq6500l
sq6500l_289            4.060460         1.00000      sq6500l
sq6500l_290            4.007351         1.00000      sq6500l
sq6500l_291            3.931845         1.00000      sq6500l
sq6500l_292            3.871222         1.00000      sq6500l
sq6500l_293            3.912043         1.00000      sq6500l
sq6500l_294            4.234121         1.00000      sq6500l
sq6500l_295            4.025370         1.00000      sq6500l
sq6500l_296            3.931845         1.00000      sq6500l
sq6500l_297            3.850169         1.00000      sq6500l
sq6500l_298            3.806685         1.00000      sq6500l
sq6500l_299            3.784212         1.00000      sq6500l
sq6500l_300            3.761223         1.00000      sq6500l
sq6500l_301            3.806685         1.00000      sq6500l
sq6500l_302            5.010642         1.00000      sq6500l
sq6500l_303            4.962852         1.00000      sq6500l
sq6500l_304            4.394462         1.00000      sq6500l
sq6500l_305            4.204708         1.00000      sq6500l
sq6500l_306            4.158899         1.00000      sq6500l
sq6500l_307            4.143151         1.00000      sq6500l
sq6500l_308            4.189670         1.00000      sq6500l
sq6500l_309            4.077554         1.00000      sq6500l
sq6500l_310            4.077554         1.00000      sq6500l
sq6500l_311            4.060460         1.00000      sq6500l
sq6500l_312            4.025370         1.00000      sq6500l
sq6500l_313            4.077554         1.00000      sq6500l
sq6500l_314            4.304079         1.00000      sq6500l
sq6500l_315            4.343818         1.00000      sq6500l
sq6500l_316            4.204708         1.00000      sq6500l
sq6500l_317            4.488647         1.00000      sq6500l
sq6500l_318            4.234121         1.00000      sq6500l
sq6500l_319            4.418853         1.00000      sq6500l
sq6500l_320            4.532610         1.00000      sq6500l
sq6500l_321            4.248509         1.00000      sq6500l
sq6500l_322            4.110890         1.00000      sq6500l
sq6500l_323            4.094361         1.00000      sq6500l
sq6500l_324            4.060460         1.00000      sq6500l
sq6500l_325            4.043069         1.00000      sq6500l
sq6500l_326            4.043069         1.00000      sq6500l
sq6500l_327            4.025370         1.00000      sq6500l
sq6500l_328            3.989002         1.00000      sq6500l
sq6500l_329            3.989002         1.00000      sq6500l
sq6500l_330            3.951263         1.00000      sq6500l
sq6500l_331            3.951263         1.00000      sq6500l
sq6500l_332            4.007351         1.00000      sq6500l
sq6500l_333            3.951263         1.00000      sq6500l
sq6500l_334            3.970311         1.00000      sq6500l
sq6500l_335            3.951263         1.00000      sq6500l
sq6500l_336            3.931845         1.00000      sq6500l
sq6500l_337            3.912043         1.00000      sq6500l
sq6500l_338            3.912043         1.00000      sq6500l
sq6500l_339            3.912043         1.00000      sq6500l
sq6500l_340            3.912043         1.00000      sq6500l
sq6500l_341            3.931845         1.00000      sq6500l
sq6500l_342            3.931845         1.00000      sq6500l
sq6500l_343            3.891841         1.00000      sq6500l
sq6500l_344            3.871222         1.00000      sq6500l
sq6500l_345            3.850169         1.00000      sq6500l
sq6500l_346            3.828663         1.00000      sq6500l
sq6500l_347            3.828663         1.00000      sq6500l
sq6500l_348            3.806685         1.00000      sq6500l
sq6500l_349            3.806685         1.00000      sq6500l
sq6500l_350            3.806685         1.00000      sq6500l
sq6500l_351            3.784212         1.00000      sq6500l
sq6500l_352            3.784212         1.00000      sq6500l
sq6500l_353            3.784212         1.00000      sq6500l
sq6500l_354            3.828663         1.00000      sq6500l
sq6500l_355            3.806685         1.00000      sq6500l
sq6500l_356            3.806685         1.00000      sq6500l
sq6500l_357            3.806685         1.00000      sq6500l
sq6500l_358            3.761223         1.00000      sq6500l
sq6500l_359            3.761223         1.00000      sq6500l
sq6500l_360            3.761223         1.00000      sq6500l
sq6500l_361            3.761223         1.00000      sq6500l
sq6500l_362            3.761223         1.00000      sq6500l
sq6500l_363            3.761223         1.00000      sq6500l
sq6500l_364            3.784212         1.00000      sq6500l
sq6500l_365            3.761223         1.00000      sq6500l
sq6500l_366            3.784212         1.00000      sq6500l
sq6500l_367            3.761223         1.00000      sq6500l
sq6500l_368            3.761223         1.00000      sq6500l
sq6500l_369            3.737693         1.00000      sq6500l
sq6500l_370            3.737693         1.00000      sq6500l
sq6500l_371            3.761223         1.00000      sq6500l
sq6500l_372            3.761223         1.00000      sq6500l
sq6500l_373            3.761223         1.00000      sq6500l
sq6500l_374            3.784212         1.00000      sq6500l
sq6500l_375            3.737693         1.00000      sq6500l
sq6500l_376            3.761223         1.00000      sq6500l
sq6500l_377            3.737693         1.00000      sq6500l
sq6500l_378            3.761223         1.00000      sq6500l
sq6500l_379            3.761223         1.00000      sq6500l
sq6500l_380            3.784212         1.00000      sq6500l
sq6500l_381            3.806685         1.00000      sq6500l
sq6500l_382            3.806685         1.00000      sq6500l
sq6500l_383            3.806685         1.00000      sq6500l
sq6500l_384            3.806685         1.00000      sq6500l
sq6500l_385            3.806685         1.00000      sq6500l
sq6500l_386            3.784212         1.00000      sq6500l
sq6500l_387            3.737693         1.00000      sq6500l
sq6500l_388            3.713596         1.00000      sq6500l
sq6500l_389            3.688905         1.00000      sq6500l
sq6500l_390            3.688905         1.00000      sq6500l
sq6500l_391            3.688905         1.00000      sq6500l
sq6500l_392            3.688905         1.00000      sq6500l
sq6500l_393            3.713596         1.00000      sq6500l
sq6500l_394            3.761223         1.00000      sq6500l
sq6500l_395            3.761223         1.00000      sq6500l
sq6500l_396            3.737693         1.00000      sq6500l
sq6500l_397            3.931845         1.00000      sq6500l
sq6500l_398            4.158899         1.00000      sq6500l
sq6500l_399            4.077554         1.00000      sq6500l
sq6500l_400            4.060460         1.00000      sq6500l
sq6500l_401            4.060460         1.00000      sq6500l
sq6500l_402            4.025370         1.00000      sq6500l
sq6500l_403            3.931845         1.00000      sq6500l
sq6500l_404            3.871222         1.00000      sq6500l
sq6500l_405            3.828663         1.00000      sq6500l
sq6500l_406            3.784212         1.00000      sq6500l
sq6500l_407            3.784212         1.00000      sq6500l
sq6500l_408            3.761223         1.00000      sq6500l
sq6500l_409            3.761223         1.00000      sq6500l
sq6500l_410            3.761223         1.00000      sq6500l
sq6500l_411            3.761223         1.00000      sq6500l
sq6500l_412            3.761223         1.00000      sq6500l
sq6500l_413            3.806685         1.00000      sq6500l
sq6500l_414            3.784212         1.00000      sq6500l
sq6500l_415            3.761223         1.00000      sq6500l
sq6500l_416            3.761223         1.00000      sq6500l
sq6500l_417            3.761223         1.00000      sq6500l
sq6500l_418            3.737693         1.00000      sq6500l
sq6500l_419            3.761223         1.00000      sq6500l
sq6500l_420            3.737693         1.00000      sq6500l
sq6500l_421            3.737693         1.00000      sq6500l
sq6500l_422            3.737693         1.00000      sq6500l
sq6500l_423            3.737693         1.00000      sq6500l
sq6500l_424            3.761223         1.00000      sq6500l
sq6500l_425            3.784212         1.00000      sq6500l
sq6500l_426            3.850169         1.00000      sq6500l
sq6500l_427            3.850169         1.00000      sq6500l
sq6500l_428            3.784212         1.00000      sq6500l
sq6500l_429            3.761223         1.00000      sq6500l
sq6500l_430            3.784212         1.00000      sq6500l
sq6500l_431            4.477348         1.00000      sq6500l
sq6500l_432            4.553887         1.00000      sq6500l
sq6500l_433            4.382039         1.00000      sq6500l
sq6500l_434            4.356722         1.00000      sq6500l
sq6500l_435            4.442663         1.00000      sq6500l
sq6500l_436            4.442663         1.00000      sq6500l
sq6500l_437            4.553887         1.00000      sq6500l
sq6500l_438            4.682140         1.00000      sq6500l
sq6500l_439            5.147501         1.00000      sq6500l
sq6500l_440            5.247029         1.00000      sq6500l
sq6500l_441            4.644401         1.00000      sq6500l
sq6500l_442            4.442663         1.00000      sq6500l
sq6500l_443            4.430829         1.00000      sq6500l
sq6500l_444            4.442663         1.00000      sq6500l
sq6500l_445            4.356722         1.00000      sq6500l
sq6500l_446            4.356722         1.00000      sq6500l
sq6500l_447            4.304079         1.00000      sq6500l
sq6500l_448            4.234121         1.00000      sq6500l
sq6500l_449            4.262694         1.00000      sq6500l
sq6500l_450            4.248509         1.00000      sq6500l
sq6500l_451            4.219522         1.00000      sq6500l
sq6500l_452            4.189670         1.00000      sq6500l
sq6500l_453            4.234121         1.00000      sq6500l
sq6500l_454            4.174403         1.00000      sq6500l
sq6500l_455            4.262694         1.00000      sq6500l
sq6500l_456            4.262694         1.00000      sq6500l
sq6500l_457            4.262694         1.00000      sq6500l
sq6500l_458            4.189670         1.00000      sq6500l
sq6500l_459            4.158899         1.00000      sq6500l
sq6500l_460            4.127151         1.00000      sq6500l
sq6500l_461            4.094361         1.00000      sq6500l
sq6500l_462            4.060460         1.00000      sq6500l
sq6500l_463            4.077554         1.00000      sq6500l
sq6500l_464            4.110890         1.00000      sq6500l
sq6500l_465            4.060460         1.00000      sq6500l
sq6500l_466            4.290473         1.00000      sq6500l
sq6500l_467            4.262694         1.00000      sq6500l
sq6500l_468            4.174403         1.00000      sq6500l