pcf
* control data
restart estimation
         6       3668          4          0          3
         1          1     single      point          1          0          0 noobsreref
 10.000000   2.000000   0.300000   0.030000         10        999 nolamforgive noderforgive
  5.000000   5.000000   0.001000          0          0
  0.100000          1          0        aui nosenreuse boundscale
        30   0.005000          4          4   0.005000          4        0.0          1       -1.0
         1          1          1          0    jcosave verboserec nojcosaveitn reisaveitn noparsaveitn noparsaverun
* lsqr
         1
    0.0001     0.0001     1000.0         24
         0
* parameter groups
prcp           relative       0.01      1e-05     switch        2.0 outside_pts
evap           relative       0.01      1e-05     switch        2.0 outside_pts
soilzone       relative       0.01      1e-05     switch        2.0 outside_pts
ssres          relative       0.01      1e-05     switch        2.0 outside_pts
* parameter data
jhcoef_fac             log          factor        1.000000        0.750000        1.500000       evap      1.000      0.000          1
rnadj_fac              log          factor        1.000000        0.750000        1.500000       prcp      1.000      0.000          1
snwadj_fac             log          factor        1.000000        0.750000        1.500000       prcp      1.000      0.000          1
pfd_fac                log          factor        1.000000        0.750000        1.500000   soilzone      1.000      0.000          1
s2gw_fac               log          factor        1.000000        0.750000        1.500000      ssres      1.000      0.000          1
s2gwe_fac              log          factor        1.000000        0.750000        1.500000      ssres      1.000      0.000          1
* observation groups
sq6500
esq6500
sim_hyd_indx
* observation data
sq65001                    15.379240        1.000000 sq6500
sq65002                    15.227903        1.000000 sq6500
sq65003                    15.098820        1.000000 sq6500
sq65004                    14.991443        1.000000 sq6500
sq65005                    14.868199        1.000000 sq6500
sq65006                    14.735653        1.000000 sq6500
sq65007                    14.606379        1.000000 sq6500
sq65008                    14.486470        1.000000 sq6500
sq65009                    14.381867        1.000000 sq6500
sq650010                   14.310711        1.000000 sq6500
sq650011                   14.284521        1.000000 sq6500
sq650012                   14.271323        1.000000 sq6500
sq650013                   14.227587        1.000000 sq6500
sq650014                   14.160240        1.000000 sq6500
sq650015                   14.094556        1.000000 sq6500
sq650016                   14.024321        1.000000 sq6500
sq650017                   13.955820        1.000000 sq6500
sq650018                   13.913702        1.000000 sq6500
sq650019                   13.872623        1.000000 sq6500
sq650020                   13.807868        1.000000 sq6500
sq650021                   13.744712        1.000000 sq6500
sq650022                   13.683115        1.000000 sq6500
sq650023                   13.616866        1.000000 sq6500
sq650024                   13.546080        1.000000 sq6500
sq650025                   13.470869        1.000000 sq6500
sq650026                   13.391342        1.000000 sq6500
sq650027                   13.307607        1.000000 sq6500
sq650028                   13.225938        1.000000 sq6500
sq650029                   13.146287        1.000000 sq6500
sq650030                   13.068601        1.000000 sq6500
sq650031                   12.992834        1.000000 sq6500
sq650032                   12.918938        1.000000 sq6500
sq650033                   12.846867        1.000000 sq6500
sq650034                   12.776575        1.000000 sq6500
sq650035                   12.726536        1.000000 sq6500
sq650036                   12.690079        1.000000 sq6500
sq650037                   12.666868        1.000000 sq6500
sq650038                   12.644229        1.000000 sq6500
sq650039                   12.597459        1.000000 sq6500
sq650040                   12.551843        1.000000 sq6500
sq650041                   12.513526        1.000000 sq6500
sq650042                   12.469983        1.000000 sq6500
sq650043                   12.421342        1.000000 sq6500
sq650044                   12.373902        1.000000 sq6500
sq650045                   12.327634        1.000000 sq6500
sq650046                   12.282507        1.000000 sq6500
sq650047                   12.244668        1.000000 sq6500
sq650048                   12.207763        1.000000 sq6500
sq650049                   12.165597        1.000000 sq6500
sq650050                   12.124472        1.000000 sq6500
sq650051                   12.084362        1.000000 sq6500
sq650052                   12.063760        1.000000 sq6500
sq650053                   12.049841        1.000000 sq6500
sq650054                   12.023919        1.000000 sq6500
sq650055                   11.992465        1.000000 sq6500
sq650056                   11.955614        1.000000 sq6500
sq650057                   11.919673        1.000000 sq6500
sq650058                   11.934002        1.000000 sq6500
sq650059                   11.985014        1.000000 sq6500
sq650060                   11.997729        1.000000 sq6500
sq650061                   11.979267        1.000000 sq6500
sq650062                   11.955088        1.000000 sq6500
sq650063                   11.925333        1.000000 sq6500
sq650064                   11.890140        1.000000 sq6500
sq650065                   11.855816        1.000000 sq6500
sq650066                   11.822340        1.000000 sq6500
sq650067                   11.783517        1.000000 sq6500
sq650068                   11.739480        1.000000 sq6500
sq650069                   11.696531        1.000000 sq6500
sq650070                   11.660814        1.000000 sq6500
sq650071                   11.632153        1.000000 sq6500
sq650072                   11.610371        1.000000 sq6500
sq650073                   11.601473        1.000000 sq6500
sq650074                   11.605141        1.000000 sq6500
sq650075                   11.608717        1.000000 sq6500
sq650076                   11.606033        1.000000 sq6500
sq650077                   11.591069        1.000000 sq6500
sq650078                   11.570303        1.000000 sq6500
sq650079                   11.562394        1.000000 sq6500
sq650080                   11.554681        1.000000 sq6500
sq650081                   11.540985        1.000000 sq6500
sq650082                   11.533800        1.000000 sq6500
sq650083                   11.526793        1.000000 sq6500
sq650084                   11.513786        1.000000 sq6500
sq650085                   11.494927        1.000000 sq6500
sq650086                   11.470361        1.000000 sq6500
sq650087                   11.446402        1.000000 sq6500
sq650088                   11.423034        1.000000 sq6500
sq650089                   11.406417        1.000000 sq6500
sq650090                   11.390209        1.000000 sq6500
sq650091                   11.355883        1.000000 sq6500
sq650092                   11.322405        1.000000 sq6500
sq650093                   11.302099        1.000000 sq6500
sq650094                   11.276122        1.000000 sq6500
sq650095                   11.244613        1.000000 sq6500
sq650096                   11.213882        1.000000 sq6500
sq650097                   11.183910        1.000000 sq6500
sq650098                   11.160851        1.000000 sq6500
sq650099                   11.150707        1.000000 sq6500
sq6500100                  11.140813        1.000000 sq6500
sq6500101                  11.124990        1.000000 sq6500
sq6500102                  11.109559        1.000000 sq6500
sq6500103                  11.094508        1.000000 sq6500
sq6500104                  11.079829        1.000000 sq6500
sq6500105                  11.065512        1.000000 sq6500
sq6500106                  11.051549        1.000000 sq6500
sq6500107                  11.044104        1.000000 sq6500
sq6500108                  11.036842        1.000000 sq6500
sq6500109                  11.017414        1.000000 sq6500
sq6500110                  10.998466        1.000000 sq6500
sq6500111                  10.986158        1.000000 sq6500
sq6500112                  10.967982        1.000000 sq6500
sq6500113                  10.944081        1.000000 sq6500
sq6500114                  10.920771        1.000000 sq6500
sq6500115                  10.898036        1.000000 sq6500
sq6500116                  10.875863        1.000000 sq6500
sq6500117                  10.854237        1.000000 sq6500
sq6500118                  10.833145        1.000000 sq6500
sq6500119                  10.806401        1.000000 sq6500
sq6500120                  10.774144        1.000000 sq6500
sq6500121                  10.742684        1.000000 sq6500
sq6500122                  10.712001        1.000000 sq6500
sq6500123                  10.682076        1.000000 sq6500
sq6500124                  10.659062        1.000000 sq6500
sq6500125                  10.642789        1.000000 sq6500
sq6500126                  10.626918        1.000000 sq6500
sq6500127                  10.617611        1.000000 sq6500
sq6500128                  10.620880        1.000000 sq6500
sq6500129                  10.630241        1.000000 sq6500
sq6500130                  10.645543        1.000000 sq6500
sq6500131                  10.691332        1.000000 sq6500
sq6500132                  10.760681        1.000000 sq6500
sq6500133                  10.828317        1.000000 sq6500
sq6500134                  10.875766        1.000000 sq6500
sq6500135                  10.903524        1.000000 sq6500
sq6500136                  10.924425        1.000000 sq6500
sq6500137                  10.938636        1.000000 sq6500
sq6500138                  10.952497        1.000000 sq6500
sq6500139                  10.959842        1.000000 sq6500
sq6500140                  10.960834        1.000000 sq6500
sq6500141                  10.961801        1.000000 sq6500
sq6500142                  10.968917        1.000000 sq6500
sq6500143                  10.988203        1.000000 sq6500
sq6500144                  11.062567        1.000000 sq6500
sq6500145                  11.277069        1.000000 sq6500
sq6500146                  11.517138        1.000000 sq6500
sq6500147                  11.646343        1.000000 sq6500
sq6500148                  11.716803        1.000000 sq6500
sq6500149                  11.760832        1.000000 sq6500
sq6500150                  11.785255        1.000000 sq6500
sq6500151                  11.796730        1.000000 sq6500
sq6500152                  12.079524        1.000000 sq6500
sq6500153                  13.583713        1.000000 sq6500
sq6500154                  15.026072        1.000000 sq6500
sq6500155                  15.352585        1.000000 sq6500
sq6500156                  15.578444        1.000000 sq6500
sq6500157                  15.909836        1.000000 sq6500
sq6500158                  16.196009        1.000000 sq6500
sq6500159                  16.314625        1.000000 sq6500
sq6500160                  16.399448        1.000000 sq6500
sq6500161                  16.445140        1.000000 sq6500
sq6500162                  16.471186        1.000000 sq6500
sq6500163                  16.496588        1.000000 sq6500
sq6500164                  16.490500        1.000000 sq6500
sq6500165                  16.453698        1.000000 sq6500
sq6500166                  16.411632        1.000000 sq6500
sq6500167                  16.370604        1.000000 sq6500
sq6500168                  16.324417        1.000000 sq6500
sq6500169                  16.322580        1.000000 sq6500
sq6500170                  16.357824        1.000000 sq6500
sq6500171                  16.373680        1.000000 sq6500
sq6500172                  16.376799        1.000000 sq6500
sq6500173                  16.373668        1.000000 sq6500
sq6500174                  16.537279        1.000000 sq6500
sq6500175                  16.752405        1.000000 sq6500
sq6500176                  16.814074        1.000000 sq6500
sq6500177                  16.849528        1.000000 sq6500
sq6500178                  17.038426        1.000000 sq6500
sq6500179                  17.290561        1.000000 sq6500
sq6500180                  17.388323        1.000000 sq6500
sq6500181                  17.403426        1.000000 sq6500
sq6500182                  17.387292        1.000000 sq6500
sq6500183                  17.334520        1.000000 sq6500
sq6500184                  17.258360        1.000000 sq6500
sq6500185                  17.171735        1.000000 sq6500
sq6500186                  17.074904        1.000000 sq6500
sq6500187                  16.955772        1.000000 sq6500
sq6500188                  16.821063        1.000000 sq6500
sq6500189                  16.689680        1.000000 sq6500
sq6500190                  16.573887        1.000000 sq6500
sq6500191                  16.695518        1.000000 sq6500
sq6500192                  16.980810        1.000000 sq6500
sq6500193                  17.129430        1.000000 sq6500
sq6500194                  17.336109        1.000000 sq6500
sq6500195                  18.093232        1.000000 sq6500
sq6500196                  19.282273        1.000000 sq6500
sq6500197                  20.219735        1.000000 sq6500
sq6500198                  20.720476        1.000000 sq6500
sq6500199                  20.974288        1.000000 sq6500
sq6500200                  21.116897        1.000000 sq6500
sq6500201                  21.194256        1.000000 sq6500
sq6500202                  21.232669        1.000000 sq6500
sq6500203                  21.239270        1.000000 sq6500
sq6500204                  21.214844        1.000000 sq6500
sq6500205                  21.191021        1.000000 sq6500
sq6500206                  21.155440        1.000000 sq6500
sq6500207                  21.089875        1.000000 sq6500
sq6500208                  21.007410        1.000000 sq6500
sq6500209                  20.920808        1.000000 sq6500
sq6500210                  20.842518        1.000000 sq6500
sq6500211                  21.031589        1.000000 sq6500
sq6500212                  21.327101        1.000000 sq6500
sq6500213                  21.411616        1.000000 sq6500
sq6500214                  21.413799        1.000000 sq6500
sq6500215                  21.366545        1.000000 sq6500
sq6500216                  21.283421        1.000000 sq6500
sq6500217                  21.338151        1.000000 sq6500
sq6500218                  21.539676        1.000000 sq6500
sq6500219                  21.668324        1.000000 sq6500
sq6500220                  21.701204        1.000000 sq6500
sq6500221                  21.690064        1.000000 sq6500
sq6500222                  21.642162        1.000000 sq6500
sq6500223                  21.564578        1.000000 sq6500
sq6500224                  21.464220        1.000000 sq6500
sq6500225                  21.353993        1.000000 sq6500
sq6500226                  21.246489        1.000000 sq6500
sq6500227                  21.135466        1.000000 sq6500
sq6500228                  21.014839        1.000000 sq6500
sq6500229                  20.884844        1.000000 sq6500
sq6500230                  20.795096        1.000000 sq6500
sq6500231                  20.738428        1.000000 sq6500
sq6500232                  20.652295        1.000000 sq6500
sq6500233                  20.562116        1.000000 sq6500
sq6500234                  20.480336        1.000000 sq6500
sq6500235                  20.394403        1.000000 sq6500
sq6500236                  20.304419        1.000000 sq6500
sq6500237                  20.216657        1.000000 sq6500
sq6500238                  20.143407        1.000000 sq6500
sq6500239                  20.059620        1.000000 sq6500
sq6500240                  19.953211        1.000000 sq6500
sq6500241                  19.837084        1.000000 sq6500
sq6500242                  19.729997        1.000000 sq6500
sq6500243                  19.631727        1.000000 sq6500
sq6500244                  19.523537        1.000000 sq6500
sq6500245                  19.418019        1.000000 sq6500
sq6500246                  19.321279        1.000000 sq6500
sq6500247                  19.220755        1.000000 sq6500
sq6500248                  19.110367        1.000000 sq6500
sq6500249                  18.996533        1.000000 sq6500
sq6500250                  18.879336        1.000000 sq6500
sq6500251                  18.765033        1.000000 sq6500
sq6500252                  18.647379        1.000000 sq6500
sq6500253                  18.526458        1.000000 sq6500
sq6500254                  18.414695        1.000000 sq6500
sq6500255                  18.293346        1.000000 sq6500
sq6500256                  18.156475        1.000000 sq6500
sq6500257                  18.041502        1.000000 sq6500
sq6500258                  18.089859        1.000000 sq6500
sq6500259                  18.174059        1.000000 sq6500
sq6500260                  18.126552        1.000000 sq6500
sq6500261                  18.043181        1.000000 sq6500
sq6500262                  17.943351        1.000000 sq6500
sq6500263                  17.821295        1.000000 sq6500
sq6500264                  17.689906        1.000000 sq6500
sq6500265                  17.592626        1.000000 sq6500
sq6500266                  17.497747        1.000000 sq6500
sq6500267                  17.368175        1.000000 sq6500
sq6500268                  17.229457        1.000000 sq6500
sq6500269                  17.094163        1.000000 sq6500
sq6500270                  16.968383        1.000000 sq6500
sq6500271                  16.858054        1.000000 sq6500
sq6500272                  16.756622        1.000000 sq6500
sq6500273                  16.651521        1.000000 sq6500
sq6500274                  16.573707        1.000000 sq6500
sq6500275                  16.553369        1.000000 sq6500
sq6500276                  16.521187        1.000000 sq6500
sq6500277                  16.440418        1.000000 sq6500
sq6500278                  16.349298        1.000000 sq6500
sq6500279                  16.254255        1.000000 sq6500
sq6500280                  16.210940        1.000000 sq6500
sq6500281                  16.242769        1.000000 sq6500
sq6500282                  16.242947        1.000000 sq6500
sq6500283                  16.187566        1.000000 sq6500
sq6500284                  16.121208        1.000000 sq6500
sq6500285                  16.044142        1.000000 sq6500
sq6500286                  15.968979        1.000000 sq6500
sq6500287                  15.889499        1.000000 sq6500
sq6500288                  15.799636        1.000000 sq6500
sq6500289                  15.711992        1.000000 sq6500
sq6500290                  15.632684        1.000000 sq6500
sq6500291                  15.555335        1.000000 sq6500
sq6500292                  15.479896        1.000000 sq6500
sq6500293                  15.406319        1.000000 sq6500
sq6500294                  15.346904        1.000000 sq6500
sq6500295                  15.307475        1.000000 sq6500
sq6500296                  15.250501        1.000000 sq6500
sq6500297                  15.164070        1.000000 sq6500
sq6500298                  15.073600        1.000000 sq6500
sq6500299                  14.979192        1.000000 sq6500
sq6500300                  14.880941        1.000000 sq6500
sq6500301                  14.791290        1.000000 sq6500
sq6500302                  14.722370        1.000000 sq6500
sq6500303                  14.661324        1.000000 sq6500
sq6500304                  14.595614        1.000000 sq6500
sq6500305                  14.531525        1.000000 sq6500
sq6500306                  14.469019        1.000000 sq6500
sq6500307                  14.401884        1.000000 sq6500
sq6500308                  14.330233        1.000000 sq6500
sq6500309                  14.254179        1.000000 sq6500
sq6500310                  14.167657        1.000000 sq6500
sq6500311                  14.083272        1.000000 sq6500
sq6500312                  14.198498        1.000000 sq6500
sq6500313                  14.372607        1.000000 sq6500
sq6500314                  14.363407        1.000000 sq6500
sq6500315                  14.292706        1.000000 sq6500
sq6500316                  14.211406        1.000000 sq6500
sq6500317                  14.132113        1.000000 sq6500
sq6500318                  14.060951        1.000000 sq6500
sq6500319                  13.997718        1.000000 sq6500
sq6500320                  13.942220        1.000000 sq6500
sq6500321                  13.900437        1.000000 sq6500
sq6500322                  13.865859        1.000000 sq6500
sq6500323                  13.832134        1.000000 sq6500
sq6500324                  13.811588        1.000000 sq6500
sq6500325                  13.797722        1.000000 sq6500
sq6500326                  13.778025        1.000000 sq6500
sq6500327                  13.758815        1.000000 sq6500
sq6500328                  13.740079        1.000000 sq6500
sq6500329                  13.721806        1.000000 sq6500
sq6500330                  13.710156        1.000000 sq6500
sq6500331                  13.704967        1.000000 sq6500
sq6500332                  13.693734        1.000000 sq6500
sq6500333                  13.670432        1.000000 sq6500
sq6500334                  13.660051        1.000000 sq6500
sq6500335                  13.656099        1.000000 sq6500
sq6500336                  13.627554        1.000000 sq6500
sq6500337                  13.581195        1.000000 sq6500
sq6500338                  13.535981        1.000000 sq6500
sq6500339                  13.498056        1.000000 sq6500
sq6500340                  13.461068        1.000000 sq6500
sq6500341                  13.424992        1.000000 sq6500
sq6500342                  13.383635        1.000000 sq6500
sq6500343                  13.337126        1.000000 sq6500
sq6500344                  13.297938        1.000000 sq6500
sq6500345                  13.259718        1.000000 sq6500
sq6500346                  13.222442        1.000000 sq6500
sq6500347                  13.260159        1.000000 sq6500
sq6500348                  13.309290        1.000000 sq6500
sq6500349                  13.338690        1.000000 sq6500
sq6500350                  13.484646        1.000000 sq6500
sq6500351                  13.620826        1.000000 sq6500
sq6500352                  13.630188        1.000000 sq6500
sq6500353                  13.626974        1.000000 sq6500
sq6500354                  13.617666        1.000000 sq6500
sq6500355                  13.571551        1.000000 sq6500
sq6500356                  13.514230        1.000000 sq6500
sq6500357                  13.458323        1.000000 sq6500
sq6500358                  13.416143        1.000000 sq6500
sq6500359                  13.381177        1.000000 sq6500
sq6500360                  13.353247        1.000000 sq6500
sq6500361                  13.326007        1.000000 sq6500
sq6500362                  13.293266        1.000000 sq6500
sq6500363                  13.255162        1.000000 sq6500
sq6500364                  13.205652        1.000000 sq6500
sq6500365                  13.151192        1.000000 sq6500
sq6500366                  13.104250        1.000000 sq6500
sq6500367                  13.064639        1.000000 sq6500
sq6500368                  13.026007        1.000000 sq6500
sq6500369                  13.013019        1.000000 sq6500
sq6500370                  13.068252        1.000000 sq6500
sq6500371                  13.115949        1.000000 sq6500
sq6500372                  13.100741        1.000000 sq6500
sq6500373                  13.073562        1.000000 sq6500
sq6500374                  13.040882        1.000000 sq6500
sq6500375                  12.996663        1.000000 sq6500
sq6500376                  12.947364        1.000000 sq6500
sq6500377                  12.893109        1.000000 sq6500
sq6500378                  12.834020        1.000000 sq6500
sq6500379                  12.782564        1.000000 sq6500
sq6500380                  12.738550        1.000000 sq6500
sq6500381                  12.689451        1.000000 sq6500
sq6500382                  12.635391        1.000000 sq6500
sq6500383                  12.576493        1.000000 sq6500
sq6500384                  12.519050        1.000000 sq6500
sq6500385                  12.469197        1.000000 sq6500
sq6500386                  12.420576        1.000000 sq6500
sq6500387                  12.373155        1.000000 sq6500
sq6500388                  12.333077        1.000000 sq6500
sq6500389                  12.361890        1.000000 sq6500
sq6500390                  13.340596        1.000000 sq6500
sq6500391                  14.505011        1.000000 sq6500
sq6500392                  14.869080        1.000000 sq6500
sq6500393                  15.082186        1.000000 sq6500
sq6500394                  15.357931        1.000000 sq6500
sq6500395                  15.694768        1.000000 sq6500
sq6500396                  15.924524        1.000000 sq6500
sq6500397                  16.401690        1.000000 sq6500
sq6500398                  17.052257        1.000000 sq6500
sq6500399                  17.408987        1.000000 sq6500
sq6500400                  17.553208        1.000000 sq6500
sq6500401                  17.625967        1.000000 sq6500
sq6500402                  17.659893        1.000000 sq6500
sq6500403                  17.662118        1.000000 sq6500
sq6500404                  17.627252        1.000000 sq6500
sq6500405                  17.568555        1.000000 sq6500
sq6500406                  17.498962        1.000000 sq6500
sq6500407                  17.424914        1.000000 sq6500
sq6500408                  17.352695        1.000000 sq6500
sq6500409                  17.282259        1.000000 sq6500
sq6500410                  17.225908        1.000000 sq6500
sq6500411                  17.282057        1.000000 sq6500
sq6500412                  17.392376        1.000000 sq6500
sq6500413                  17.432070        1.000000 sq6500
sq6500414                  17.581893        1.000000 sq6500
sq6500415                  17.795918        1.000000 sq6500
sq6500416                  17.899721        1.000000 sq6500
sq6500417                  17.945406        1.000000 sq6500
sq6500418                  17.959100        1.000000 sq6500
sq6500419                  18.015664        1.000000 sq6500
sq6500420                  18.114042        1.000000 sq6500
sq6500421                  18.166781        1.000000 sq6500
sq6500422                  18.175008        1.000000 sq6500
sq6500423                  18.164514        1.000000 sq6500
sq6500424                  18.135761        1.000000 sq6500
sq6500425                  18.113891        1.000000 sq6500
sq6500426                  18.376508        1.000000 sq6500
sq6500427                  18.719058        1.000000 sq6500
sq6500428                  18.824759        1.000000 sq6500
sq6500429                  18.859950        1.000000 sq6500
sq6500430                  18.857235        1.000000 sq6500
sq6500431                  18.823724        1.000000 sq6500
sq6500432                  18.772521        1.000000 sq6500
sq6500433                  18.716410        1.000000 sq6500
sq6500434                  18.711067        1.000000 sq6500
sq6500435                  18.761410        1.000000 sq6500
sq6500436                  18.804338        1.000000 sq6500
sq6500437                  18.821515        1.000000 sq6500
sq6500438                  18.881476        1.000000 sq6500
sq6500439                  19.014031        1.000000 sq6500
sq6500440                  19.124794        1.000000 sq6500
sq6500441                  19.171095        1.000000 sq6500
sq6500442                  19.179216        1.000000 sq6500
sq6500443                  19.168618        1.000000 sq6500
sq6500444                  19.139764        1.000000 sq6500
sq6500445                  19.093103        1.000000 sq6500
sq6500446                  19.047595        1.000000 sq6500
sq6500447                  19.009384        1.000000 sq6500
sq6500448                  18.972115        1.000000 sq6500
sq6500449                  18.935767        1.000000 sq6500
sq6500450                  18.900317        1.000000 sq6500
sq6500451                  18.859569        1.000000 sq6500
sq6500452                  18.813654        1.000000 sq6500
sq6500453                  18.768873        1.000000 sq6500
sq6500454                  18.725198        1.000000 sq6500
sq6500455                  18.676428        1.000000 sq6500
sq6500456                  18.622690        1.000000 sq6500
sq6500457                  18.570278        1.000000 sq6500
sq6500458                  18.512988        1.000000 sq6500
sq6500459                  18.450940        1.000000 sq6500
sq6500460                  18.390424        1.000000 sq6500
sq6500461                  18.331402        1.000000 sq6500
sq6500462                  18.267664        1.000000 sq6500
sq6500463                  18.199328        1.000000 sq6500
sq6500464                  18.132678        1.000000 sq6500
sq6500465                  18.073848        1.000000 sq6500
sq6500466                  18.053506        1.000000 sq6500
sq6500467                  18.046012        1.000000 sq6500
sq6500468                  18.007839        1.000000 sq6500