pcf
* control data
restart estimation
         6       8114          4          0          5
         1          1     single      point          1          0          0 noobsreref
 10.000000   2.000000   0.300000   0.030000         10        999 nolamforgive noderforgive
  5.000000   5.000000   0.001000          0          0
  0.100000          1          0        aui nosenreuse boundscale
        30   0.005000          4          4   0.005000          4        0.0          1       -1.0
         1          1          1          0    jcosave verboserec nojcosaveitn reisaveitn noparsaveitn noparsaverun
* lsqr
         1
    0.0001     0.0001     1000.0         24
         0
* parameter groups
prcp           relative       0.01      1e-05     switch        2.0 outside_pts
evap           relative       0.01      1e-05     switch        2.0 outside_pts
soilzone       relative       0.01      1e-05     switch        2.0 outside_pts
ssres          relative       0.01      1e-05     switch        2.0 outside_pts
* parameter data
jhcoef_fac             log          factor        1.000000        0.750000        1.500000       evap      1.000      0.000          1
rnadj_fac              log          factor        1.000000        0.750000        1.500000       prcp      1.000      0.000          1
snwadj_fac             log          factor        1.000000        0.750000        1.500000       prcp      1.000      0.000          1
pfd_fac                log          factor        1.000000        0.750000        1.500000   soilzone      1.000      0.000          1
s2gw_fac               log          factor        1.000000        0.750000        1.500000      ssres      1.000      0.000          1
s2gwe_fac              log          factor        1.000000        0.750000        1.500000      ssres      1.000      0.000          1
* observation groups
mflow
mpeaks
mvol
mtime
mduration
* observation data
mflow1                     47.000000        0.018085 mflow
mflow2                     30.000000        0.028332 mflow
mflow3                     22.000000        0.038635 mflow
mflow4                     42.000000        0.020238 mflow
mflow5                     71.000000        0.011972 mflow
mflow6                     38.000000        0.022368 mflow
mflow7                     26.000000        0.032691 mflow
mflow8                     20.000000        0.042498 mflow
mflow9                     21.000000        0.040474 mflow
mflow10                   200.000000        0.004250 mflow
mflow11                   304.000000        0.002796 mflow
mflow12                   273.000000        0.003114 mflow
mflow13                   203.000000        0.004187 mflow
mflow14                   121.000000        0.007025 mflow
mflow15                    67.000000        0.012686 mflow
mflow16                    46.000000        0.018478 mflow
mflow17                    35.000000        0.024285 mflow
mflow18                    59.000000        0.014407 mflow
mflow19                   130.000000        0.006538 mflow
mflow20                    67.000000        0.012686 mflow
mflow21                    47.000000        0.018085 mflow
mflow22                    43.000000        0.019767 mflow
mflow23                    82.000000        0.010366 mflow
mflow24                   123.000000        0.006911 mflow
mflow25                    70.000000        0.012143 mflow
mflow26                    57.000000        0.014912 mflow
mflow27                    47.000000        0.018085 mflow
mflow28                    71.000000        0.011972 mflow
mflow29                    77.000000        0.011039 mflow
mflow30                    54.000000        0.015740 mflow
mflow31                    47.000000        0.018085 mflow
mflow32                    41.000000        0.020731 mflow
mflow33                    38.000000        0.022368 mflow
mflow34                    37.000000        0.022972 mflow
mflow35                    35.000000        0.024285 mflow
mflow36                    50.000000        0.017000 mflow
mflow37                   172.000000        0.004942 mflow
mflow38                    88.000000        0.009659 mflow
mflow39                    89.000000        0.009550 mflow
mflow40                    70.000000        0.012143 mflow
mflow41                   219.000000        0.003881 mflow
mflow42                   157.000000        0.005414 mflow
mflow43                   107.000000        0.007944 mflow
mflow44                    89.000000        0.009550 mflow
mflow45                    76.000000        0.011184 mflow
mflow46                   128.000000        0.006641 mflow
mflow47                   134.000000        0.006343 mflow
mflow48                   206.000000        0.004126 mflow
mflow49                   114.000000        0.007456 mflow
mflow50                    81.000000        0.010494 mflow
mflow51                    72.000000        0.011805 mflow
mflow52                    69.000000        0.012319 mflow
mflow53                    70.000000        0.012143 mflow
mflow54                   229.000000        0.003712 mflow
mflow55                   120.000000        0.007083 mflow
mflow56                   103.000000        0.008252 mflow
mflow57                    86.000000        0.009884 mflow
mflow58                    88.000000        0.009659 mflow
mflow59                    84.000000        0.010119 mflow
mflow60                    66.000000        0.012879 mflow
mflow61                    55.000000        0.015454 mflow
mflow62                    53.000000        0.016037 mflow
mflow63                    50.000000        0.017000 mflow
mflow64                    49.000000        0.017347 mflow
mflow65                   632.000000        0.001345 mflow
mflow66                   213.000000        0.003991 mflow
mflow67                   137.000000        0.006204 mflow
mflow68                   107.000000        0.007944 mflow
mflow69                    92.000000        0.009239 mflow
mflow70                    84.000000        0.010119 mflow
mflow71                   127.000000        0.006693 mflow
mflow72                   101.000000        0.008416 mflow
mflow73                    83.000000        0.010241 mflow
mflow74                   193.000000        0.004404 mflow
mflow75                   113.000000        0.007522 mflow
mflow76                    86.000000        0.009884 mflow
mflow77                   278.000000        0.003058 mflow
mflow78                   163.000000        0.005215 mflow
mflow79                   342.000000        0.002485 mflow
mflow80                   394.000000        0.002157 mflow
mflow81                   158.000000        0.005380 mflow
mflow82                   129.000000        0.006589 mflow
mflow83                   196.000000        0.004337 mflow
mflow84                   730.000000        0.001164 mflow
mflow85                   309.000000        0.002751 mflow
mflow86                   185.000000        0.004595 mflow
mflow87                   150.000000        0.005667 mflow
mflow88                   130.000000        0.006538 mflow
mflow89                   125.000000        0.006800 mflow
mflow90                   740.000000        0.001149 mflow
mflow91                  2170.000000        0.000392 mflow
mflow92                   652.000000        0.001304 mflow
mflow93                   284.000000        0.002993 mflow
mflow94                   204.000000        0.004167 mflow
mflow95                   161.000000        0.005279 mflow
mflow96                   120.000000        0.007083 mflow
mflow97                   110.000000        0.007727 mflow
mflow98                   100.000000        0.008500 mflow
mflow99                    90.000000        0.009444 mflow
mflow100                   70.000000        0.012143 mflow
mflow101                   85.000000        0.010000 mflow
mflow102                   70.000000        0.012143 mflow
mflow103                   55.000000        0.015454 mflow
mflow104                   75.000000        0.011333 mflow
mflow105                   65.000000        0.013077 mflow
mflow106                   60.000000        0.014166 mflow
mflow107                   55.000000        0.015454 mflow
mflow108                  280.000000        0.003036 mflow
mflow109                  436.000000        0.001950 mflow
mflow110                  179.000000        0.004749 mflow
mflow111                  146.000000        0.005822 mflow
mflow112                  147.000000        0.005782 mflow
mflow113                  110.000000        0.007727 mflow
mflow114                   70.000000        0.012143 mflow
mflow115                   65.000000        0.013077 mflow
mflow116                   60.000000        0.014166 mflow
mflow117                   58.000000        0.014655 mflow
mflow118                   56.000000        0.015178 mflow
mflow119                   54.000000        0.015740 mflow
mflow120                   53.000000        0.016037 mflow
mflow121                   52.000000        0.016346 mflow
mflow122                   51.000000        0.016666 mflow
mflow123                   50.000000        0.017000 mflow
mflow124                   49.000000        0.017347 mflow
mflow125                   48.000000        0.017708 mflow
mflow126                   48.000000        0.017708 mflow
mflow127                  125.000000        0.006800 mflow
mflow128                  580.000000        0.001466 mflow
mflow129                  427.000000        0.001991 mflow
mflow130                  550.000000        0.001545 mflow
mflow131                  296.000000        0.002872 mflow
mflow132                  217.000000        0.003917 mflow
mflow133                  169.000000        0.005030 mflow
mflow134                  110.000000        0.007727 mflow
mflow135                   80.000000        0.010625 mflow
mflow136                   70.000000        0.012143 mflow
mflow137                   65.000000        0.013077 mflow
mflow138                   60.000000        0.014166 mflow
mflow139                   55.000000        0.015454 mflow
mflow140                   53.000000        0.016037 mflow
mflow141                   50.000000        0.017000 mflow
mflow142                  470.000000        0.001809 mflow
mflow143                  586.000000        0.001451 mflow
mflow144                  228.000000        0.003728 mflow
mflow145                  211.000000        0.004028 mflow
mflow146                  110.000000        0.007727 mflow
mflow147                   96.000000        0.008854 mflow
mflow148                   90.000000        0.009444 mflow
mflow149                   80.000000        0.010625 mflow
mflow150                   75.000000        0.011333 mflow
mflow151                   70.000000        0.012143 mflow
mflow152                  164.000000        0.005183 mflow
mflow153                  653.000000        0.001302 mflow
mflow154                  866.000000        0.000982 mflow
mflow155                  355.000000        0.002394 mflow
mflow156                  271.000000        0.003137 mflow
mflow157                  463.000000        0.001836 mflow
mflow158                  911.000000        0.000933 mflow
mflow159                  263.000000        0.003232 mflow
mflow160                  187.000000        0.004545 mflow
mflow161                  184.000000        0.004620 mflow
mflow162                  137.000000        0.006204 mflow
mflow163                  109.000000        0.007798 mflow
mflow164                  105.000000        0.008095 mflow
mflow165                  103.000000        0.008252 mflow
mflow166                  101.000000        0.008416 mflow
mflow167                  119.000000        0.007143 mflow
mflow168                  166.000000        0.005120 mflow
mflow169                  411.000000        0.002068 mflow
mflow170                  345.000000        0.002464 mflow
mflow171                  255.000000        0.003333 mflow
mflow172                  213.000000        0.003991 mflow
mflow173                  210.000000        0.004048 mflow
mflow174                  288.000000        0.002951 mflow
mflow175                  492.000000        0.001728 mflow
mflow176                  295.000000        0.002881 mflow
mflow177                  192.000000        0.004427 mflow
mflow178                  531.000000        0.001601 mflow
mflow179                  705.000000        0.001206 mflow
mflow180                  263.000000        0.003232 mflow
mflow181                  176.000000        0.004830 mflow
mflow182                  136.000000        0.006250 mflow
mflow183                  128.000000        0.006641 mflow
mflow184                  131.000000        0.006488 mflow
mflow185                  115.000000        0.007391 mflow
mflow186                  111.000000        0.007658 mflow
mflow187                   99.000000        0.008586 mflow
mflow188                   96.000000        0.008854 mflow
mflow189                   89.000000        0.009550 mflow
mflow190                   83.000000        0.010241 mflow
mflow191                  111.000000        0.007658 mflow
mflow192                  151.000000        0.005629 mflow
mflow193                  113.000000        0.007522 mflow
mflow194                   86.000000        0.009884 mflow
mflow195                   77.000000        0.011039 mflow
mflow196                   74.000000        0.011486 mflow
mflow197                  166.000000        0.005120 mflow
mflow198                  166.000000        0.005120 mflow
mflow199                   98.000000        0.008673 mflow
mflow200                   85.000000        0.010000 mflow
mflow201                   81.000000        0.010494 mflow
mflow202                  987.000000        0.000861 mflow
mflow203                  619.000000        0.001373 mflow
mflow204                 1480.000000        0.000574 mflow
mflow205                  636.000000        0.001336 mflow
mflow206                  464.000000        0.001832 mflow
mflow207                  368.000000        0.002310 mflow
mflow208                  214.000000        0.003972 mflow
mflow209                  163.000000        0.005215 mflow
mflow210                  138.000000        0.006159 mflow
mflow211                  138.000000        0.006159 mflow
mflow212                  119.000000        0.007143 mflow
mflow213                   98.000000        0.008673 mflow
mflow214                   94.000000        0.009042 mflow
mflow215                   88.000000        0.009659 mflow
mflow216                   82.000000        0.010366 mflow
mflow217                   75.000000        0.011333 mflow
mflow218                   69.000000        0.012319 mflow
mflow219                   60.000000        0.014166 mflow
mflow220                   54.000000        0.015740 mflow
mflow221                   53.000000        0.016037 mflow
mflow222                   59.000000        0.014407 mflow
mflow223                   52.000000        0.016346 mflow
mflow224                   48.000000        0.017708 mflow
mflow225                   48.000000        0.017708 mflow
mflow226                   58.000000        0.014655 mflow
mflow227                   50.000000        0.017000 mflow
mflow228                   40.000000        0.021249 mflow
mflow229                   52.000000        0.016346 mflow
mflow230                   73.000000        0.011644 mflow
mflow231                   48.000000        0.017708 mflow
mflow232                   41.000000        0.020731 mflow
mflow233                   37.000000        0.022972 mflow
mflow234                   35.000000        0.024285 mflow
mflow235                   33.000000        0.025757 mflow
mflow236                   30.000000        0.028332 mflow
mflow237                   36.000000        0.023610 mflow
mflow238                   33.000000        0.025757 mflow
mflow239                   65.000000        0.013077 mflow
mflow240                   44.000000        0.019318 mflow
mflow241                   34.000000        0.024999 mflow
mflow242                   32.000000        0.026562 mflow
mflow243                   49.000000        0.017347 mflow
mflow244                   37.000000        0.022972 mflow
mflow245                   29.000000        0.029309 mflow
mflow246                   26.000000        0.032691 mflow
mflow247                   24.000000        0.035415 mflow
mflow248                   23.000000        0.036955 mflow
mflow249                   22.000000        0.038635 mflow
mflow250                   21.000000        0.040474 mflow
mflow251                   21.000000        0.040474 mflow
mflow252                   20.000000        0.042498 mflow
mflow253                   18.000000        0.047220 mflow
mflow254                   20.000000        0.042498 mflow
mflow255                   25.000000        0.033999 mflow
mflow256                   24.000000        0.035415 mflow
mflow257                   20.000000        0.042498 mflow
mflow258                   18.000000        0.047220 mflow
mflow259                   22.000000        0.038635 mflow
mflow260                   24.000000        0.035415 mflow
mflow261                   23.000000        0.036955 mflow
mflow262                   20.000000        0.042498 mflow
mflow263                   18.000000        0.047220 mflow
mflow264                   16.000000        0.053122 mflow
mflow265                   14.000000        0.060710 mflow
mflow266                   14.000000        0.060710 mflow
mflow267                   12.000000        0.070827 mflow
mflow268                    8.800000        0.096580 mflow
mflow269                    8.300000        0.102397 mflow
mflow270                    8.300000        0.102397 mflow
mflow271                    8.400000        0.101178 mflow
mflow272                    9.500000        0.089464 mflow
mflow273                   10.000000        0.084991 mflow
mflow274                   11.000000        0.077266 mflow
mflow275                   11.000000        0.077266 mflow
mflow276                   11.000000        0.077266 mflow
mflow277                   13.000000        0.065380 mflow
mflow278                   21.000000        0.040474 mflow
mflow279                   14.000000        0.060710 mflow
mflow280                   31.000000        0.027418 mflow
mflow281                   30.000000        0.028332 mflow
mflow282                   19.000000        0.044734 mflow
mflow283                   14.000000        0.060710 mflow
mflow284                   12.000000        0.070827 mflow
mflow285                   10.000000        0.084991 mflow
mflow286                   15.000000        0.056663 mflow
mflow287                   24.000000        0.035415 mflow
mflow288                   14.000000        0.060710 mflow
mflow289                   11.000000        0.077266 mflow
mflow290                    9.300000        0.091388 mflow
mflow291                    8.300000        0.102397 mflow
mflow292                    8.300000        0.102397 mflow
mflow293                    8.300000        0.102397 mflow
mflow294                    8.000000        0.106237 mflow
mflow295                    6.200000        0.137075 mflow
mflow296                    7.200000        0.118039 mflow
mflow297                    6.100000        0.139321 mflow
mflow298                    6.100000        0.139321 mflow
mflow299                    6.100000        0.139321 mflow
mflow300                    5.200000        0.163430 mflow
mflow301                    5.200000        0.163430 mflow
mflow302                    5.200000        0.163430 mflow
mflow303                    6.300000        0.134899 mflow
mflow304                    8.300000        0.102397 mflow
mflow305                    7.000000        0.121411 mflow
mflow306                    6.100000        0.139321 mflow
mflow307                    8.400000        0.101178 mflow
mflow308                   11.000000        0.077266 mflow
mflow309                   12.000000        0.070827 mflow
mflow310                    9.500000        0.089464 mflow
mflow311                    7.000000        0.121411 mflow
mflow312                    6.100000        0.139321 mflow
mflow313                   10.000000        0.084991 mflow
mflow314                   14.000000        0.060710 mflow
mflow315                   14.000000        0.060710 mflow
mflow316                   10.000000        0.084991 mflow
mflow317                    7.300000        0.116422 mflow
mflow318                    7.000000        0.121411 mflow
mflow319                    6.100000        0.139321 mflow
mflow320                    6.100000        0.139321 mflow
mflow321                    5.600000        0.151759 mflow
mflow322                    4.400000        0.193138 mflow
mflow323                    4.400000        0.193138 mflow
mflow324                    5.900000        0.144043 mflow
mflow325                   12.000000        0.070827 mflow
mflow326                    8.600000        0.098826 mflow
mflow327                    6.800000        0.124982 mflow
mflow328                    5.200000        0.163430 mflow
mflow329                    4.700000        0.180813 mflow
mflow330                    4.400000        0.193138 mflow
mflow331                    4.400000        0.193138 mflow
mflow332                    4.400000        0.193138 mflow
mflow333                    4.400000        0.193138 mflow
mflow334                    4.400000        0.193138 mflow
mflow335                    4.400000        0.193138 mflow
mflow336                    5.500000        0.154517 mflow
mflow337                    5.200000        0.163430 mflow
mflow338                    4.900000        0.173434 mflow
mflow339                   10.000000        0.084991 mflow
mflow340                   14.000000        0.060710 mflow
mflow341                    6.900000        0.123171 mflow
mflow342                    5.300000        0.160347 mflow
mflow343                    5.200000        0.163430 mflow
mflow344                    4.800000        0.177046 mflow
mflow345                    5.600000        0.151759 mflow
mflow346                    5.200000        0.163430 mflow
mflow347                    5.200000        0.163430 mflow
mflow348                    4.900000        0.173434 mflow
mflow349                    5.000000        0.169966 mflow
mflow350                    5.500000        0.154517 mflow
mflow351                    5.200000        0.163430 mflow
mflow352                    5.200000        0.163430 mflow
mflow353                    5.700000        0.149097 mflow
mflow354                    6.100000        0.139321 mflow
mflow355                    6.100000        0.139321 mflow
mflow356                    6.100000        0.139321 mflow
mflow357                    6.100000        0.139321 mflow
mflow358                    6.100000        0.139321 mflow
mflow359                    6.100000        0.139321 mflow
mflow360                   12.000000        0.070827 mflow
mflow361                   15.000000        0.056663 mflow
mflow362                   10.000000        0.084991 mflow
mflow363                    7.500000        0.113318 mflow
mflow364                    6.100000        0.139321 mflow
mflow365                    5.300000        0.160347 mflow
mflow366                    6.000000        0.141643 mflow
mflow367                    7.100000        0.119701 mflow
mflow368                    7.100000        0.119701 mflow
mflow369                    7.100000        0.119701 mflow
mflow370                    7.300000        0.116422 mflow
mflow371                    7.100000        0.119701 mflow
mflow372                    7.100000        0.119701 mflow
mflow373                    7.100000        0.119701 mflow
mflow374                    7.100000        0.119701 mflow
mflow375                   12.000000        0.070827 mflow
mflow376                   29.000000        0.029309 mflow
mflow377                   17.000000        0.049997 mflow
mflow378                   16.000000        0.053122 mflow
mflow379                   16.000000        0.053122 mflow
mflow380                   14.000000        0.060710 mflow
mflow381                   14.000000        0.060710 mflow
mflow382                   14.000000        0.060710 mflow
mflow383                   12.000000        0.070827 mflow
mflow384                   11.000000        0.077266 mflow
mflow385                   11.000000        0.077266 mflow
mflow386                   11.000000        0.077266 mflow
mflow387                   10.000000        0.084991 mflow
mflow388                    9.500000        0.089464 mflow
mflow389                    9.500000        0.089464 mflow
mflow390                    9.500000        0.089464 mflow
mflow391                    9.500000        0.089464 mflow
mflow392                    9.500000        0.089464 mflow
mflow393                    9.500000        0.089464 mflow
mflow394                    9.500000        0.089464 mflow
mflow395                    9.500000        0.089464 mflow
mflow396                    9.500000        0.089464 mflow
mflow397                    9.500000        0.089464 mflow
mflow398                    8.700000        0.097690 mflow
mflow399                    8.300000        0.102397 mflow
mflow400                    8.300000        0.102397 mflow
mflow401                    8.300000        0.102397 mflow
mflow402                    8.300000        0.102397 mflow
mflow403                    8.300000        0.102397 mflow
mflow404                    8.300000        0.102397 mflow
mflow405                    8.300000        0.102397 mflow
mflow406                    7.300000        0.116422 mflow
mflow407                    9.800000        0.086726 mflow
mflow408                   12.000000        0.070827 mflow
mflow409                   12.000000        0.070827 mflow
mflow410                   15.000000        0.056663 mflow
mflow411                   21.000000        0.040474 mflow
mflow412                   21.000000        0.040474 mflow
mflow413                   20.000000        0.042498 mflow
mflow414                   16.000000        0.053122 mflow
mflow415                   14.000000        0.060710 mflow
mflow416                   13.000000        0.065380 mflow
mflow417                   13.000000        0.065380 mflow
mflow418                   18.000000        0.047220 mflow
mflow419                   18.000000        0.047220 mflow
mflow420                   18.000000        0.047220 mflow
mflow421                   18.000000        0.047220 mflow
mflow422                   18.000000        0.047220 mflow
mflow423                   17.000000        0.049997 mflow
mflow424                   14.000000        0.060710 mflow
mflow425                   63.000000        0.013492 mflow
mflow426                   63.000000        0.013492 mflow
mflow427                   40.000000        0.021249 mflow
mflow428                   30.000000        0.028332 mflow
mflow429                   71.000000        0.011972 mflow
mflow430                   78.000000        0.010897 mflow
mflow431                   40.000000        0.021249 mflow
mflow432                   35.000000        0.024285 mflow
mflow433                   43.000000        0.019767 mflow
mflow434                  110.000000        0.007727 mflow
mflow435                   96.000000        0.008854 mflow
mflow436                   64.000000        0.013281 mflow
mflow437                   44.000000        0.019318 mflow
mflow438                   36.000000        0.023610 mflow
mflow439                   61.000000        0.013934 mflow
mflow440                   76.000000        0.011184 mflow
mflow441                   80.000000        0.010625 mflow
mflow442                   59.000000        0.014407 mflow
mflow443                   45.000000        0.018888 mflow
mflow444                   35.000000        0.024285 mflow
mflow445                   30.000000        0.028332 mflow
mflow446                   28.000000        0.030356 mflow
mflow447                   40.000000        0.021249 mflow
mflow448                   50.000000        0.017000 mflow
mflow449                   55.000000        0.015454 mflow
mflow450                   42.000000        0.020238 mflow
mflow451                   30.000000        0.028332 mflow
mflow452                   26.000000        0.032691 mflow
mflow453                   24.000000        0.035415 mflow
mflow454                   22.000000        0.038635 mflow
mflow455                  140.000000        0.006071 mflow
mflow456                  309.000000        0.002751 mflow
mflow457                   90.000000        0.009444 mflow
mflow458                   65.000000        0.013077 mflow
mflow459                   60.000000        0.014166 mflow
mflow460                   95.000000        0.008947 mflow
mflow461                  188.000000        0.004521 mflow
mflow462                  188.000000        0.004521 mflow
mflow463                  124.000000        0.006855 mflow
mflow464                   85.000000        0.010000 mflow
mflow465                   60.000000        0.014166 mflow
mflow466                   64.000000        0.013281 mflow
mflow467                   99.000000        0.008586 mflow
mflow468                   74.000000        0.011486 mflow
mflow469                   67.000000        0.012686 mflow
mflow470                   74.000000        0.011486 mflow
mflow471                  154.000000        0.005519 mflow
mflow472                   87.000000        0.009770 mflow
mflow473                   62.000000        0.013709 mflow
mflow474                   50.000000        0.017000 mflow
mflow475                   46.000000        0.018478 mflow