pcf
* control data
restart estimation
         6      10357          4          0          2
         1          1     single      point          1          0          0 noobsreref
 10.000000   2.000000   0.300000   0.030000         10        999 nolamforgive noderforgive
  5.000000   5.000000   0.001000          0          0
  0.100000          1          0        aui nosenreuse boundscale
        30   0.005000          4          4   0.005000          4        0.0          1       -1.0
         1          1          1          0    jcosave verboserec nojcosaveitn reisaveitn noparsaveitn noparsaverun
* lsqr
         1
    0.0001     0.0001     1000.0         24
         0
* parameter groups
prcp           relative       0.01      1e-05     switch        2.0 outside_pts
evap           relative       0.01      1e-05     switch        2.0 outside_pts
soilzone       relative       0.01      1e-05     switch        2.0 outside_pts
ssres          relative       0.01      1e-05     switch        2.0 outside_pts
* parameter data
jhcoef_fac             log          factor        1.000000        0.750000        1.500000       evap      1.000      0.000          1
rnadj_fac              log          factor        1.000000        0.750000        1.500000       prcp      1.000      0.000          1
snwadj_fac             log          factor        1.000000        0.750000        1.500000       prcp      1.000      0.000          1
pfd_fac                log          factor        1.000000        0.750000        1.500000   soilzone      1.000      0.000          1
s2gw_fac               log          factor        1.000000        0.750000        1.500000      ssres      1.000      0.000          1
s2gwe_fac              log          factor        1.000000        0.750000        1.500000      ssres      1.000      0.000          1
* observation groups
sq6500l
sq6500t
* observation data
sq6500l1                    3.806685        1.000000 sq6500l
sq6500l2                    3.713596        1.000000 sq6500l
sq6500l3                    3.713596        1.000000 sq6500l
sq6500l4                    3.713596        1.000000 sq6500l
sq6500l5                    3.713596        1.000000 sq6500l
sq6500l6                    3.688904        1.000000 sq6500l
sq6500l7                    3.688904        1.000000 sq6500l
sq6500l8                    3.688904        1.000000 sq6500l
sq6500l9                    3.688904        1.000000 sq6500l
sq6500l10                   3.555377        1.000000 sq6500l
sq6500l11                   3.401231        1.000000 sq6500l
sq6500l12                   3.401231        1.000000 sq6500l
sq6500l13                   3.401231        1.000000 sq6500l
sq6500l14                   3.401231        1.000000 sq6500l
sq6500l15                   3.401231        1.000000 sq6500l
sq6500l16                   3.401231        1.000000 sq6500l
sq6500l17                   3.295874        1.000000 sq6500l
sq6500l18                   3.295874        1.000000 sq6500l
sq6500l19                   3.367330        1.000000 sq6500l
sq6500l20                   3.434019        1.000000 sq6500l
sq6500l21                   3.434019        1.000000 sq6500l
sq6500l22                   3.434019        1.000000 sq6500l
sq6500l23                   3.465767        1.000000 sq6500l
sq6500l24                   3.526390        1.000000 sq6500l
sq6500l25                   3.526390        1.000000 sq6500l
sq6500l26                   3.526390        1.000000 sq6500l
sq6500l27                   3.555377        1.000000 sq6500l
sq6500l28                   3.555377        1.000000 sq6500l
sq6500l29                   3.555377        1.000000 sq6500l
sq6500l30                   3.555377        1.000000 sq6500l
sq6500l31                   3.555377        1.000000 sq6500l
sq6500l32                   3.555377        1.000000 sq6500l
sq6500l33                   3.555377        1.000000 sq6500l
sq6500l34                   3.555377        1.000000 sq6500l
sq6500l35                   3.526390        1.000000 sq6500l
sq6500l36                   3.496538        1.000000 sq6500l
sq6500l37                   3.496538        1.000000 sq6500l
sq6500l38                   3.465767        1.000000 sq6500l
sq6500l39                   3.496538        1.000000 sq6500l
sq6500l40                   3.496538        1.000000 sq6500l
sq6500l41                   3.465767        1.000000 sq6500l
sq6500l42                   3.465767        1.000000 sq6500l
sq6500l43                   3.434019        1.000000 sq6500l
sq6500l44                   3.465767        1.000000 sq6500l
sq6500l45                   3.434019        1.000000 sq6500l
sq6500l46                   3.434019        1.000000 sq6500l
sq6500l47                   3.434019        1.000000 sq6500l
sq6500l48                   3.401231        1.000000 sq6500l
sq6500l49                   3.332240        1.000000 sq6500l
sq6500l50                   4.330746        1.000000 sq6500l
sq6500l51                   5.147500        1.000000 sq6500l
sq6500l52                   5.257501        1.000000 sq6500l
sq6500l53                   5.267863        1.000000 sq6500l
sq6500l54                   4.553887        1.000000 sq6500l
sq6500l55                   4.330746        1.000000 sq6500l
sq6500l56                   4.204708        1.000000 sq6500l
sq6500l57                   4.290473        1.000000 sq6500l
sq6500l58                   4.430829        1.000000 sq6500l
sq6500l59                   4.356722        1.000000 sq6500l
sq6500l60                   4.262694        1.000000 sq6500l
sq6500l61                   4.189670        1.000000 sq6500l
sq6500l62                   4.060460        1.000000 sq6500l
sq6500l63                   4.007351        1.000000 sq6500l
sq6500l64                   4.043069        1.000000 sq6500l
sq6500l65                   4.204708        1.000000 sq6500l
sq6500l66                   4.477348        1.000000 sq6500l
sq6500l67                   4.442663        1.000000 sq6500l
sq6500l68                   4.406731        1.000000 sq6500l
sq6500l69                   4.330746        1.000000 sq6500l
sq6500l70                   4.248510        1.000000 sq6500l
sq6500l71                   4.158899        1.000000 sq6500l
sq6500l72                   4.110890        1.000000 sq6500l
sq6500l73                   4.060460        1.000000 sq6500l
sq6500l74                   3.970311        1.000000 sq6500l
sq6500l75                   3.951263        1.000000 sq6500l
sq6500l76                   3.970311        1.000000 sq6500l
sq6500l77                   3.931845        1.000000 sq6500l
sq6500l78                   3.912043        1.000000 sq6500l
sq6500l79                   3.891841        1.000000 sq6500l
sq6500l80                   3.912043        1.000000 sq6500l
sq6500l81                   3.970311        1.000000 sq6500l
sq6500l82                   3.931845        1.000000 sq6500l
sq6500l83                   3.931845        1.000000 sq6500l
sq6500l84                   3.951263        1.000000 sq6500l
sq6500l85                   4.110890        1.000000 sq6500l
sq6500l86                   4.043069        1.000000 sq6500l
sq6500l87                   3.970311        1.000000 sq6500l
sq6500l88                   4.060460        1.000000 sq6500l
sq6500l89                   4.189670        1.000000 sq6500l
sq6500l90                   4.174403        1.000000 sq6500l
sq6500l91                   4.094361        1.000000 sq6500l
sq6500l92                   4.276680        1.000000 sq6500l
sq6500l93                   4.369461        1.000000 sq6500l
sq6500l94                   4.430829        1.000000 sq6500l
sq6500l95                   4.276680        1.000000 sq6500l
sq6500l96                   4.158899        1.000000 sq6500l
sq6500l97                   4.127151        1.000000 sq6500l
sq6500l98                   4.110890        1.000000 sq6500l
sq6500l99                   4.077554        1.000000 sq6500l
sq6500l100                  4.060460        1.000000 sq6500l
sq6500l101                  4.043069        1.000000 sq6500l
sq6500l102                  4.043069        1.000000 sq6500l
sq6500l103                  4.025370        1.000000 sq6500l
sq6500l104                  3.970311        1.000000 sq6500l
sq6500l105                  3.989003        1.000000 sq6500l
sq6500l106                  3.970311        1.000000 sq6500l
sq6500l107                  3.951263        1.000000 sq6500l
sq6500l108                  3.891841        1.000000 sq6500l
sq6500l109                  3.912043        1.000000 sq6500l
sq6500l110                  3.891841        1.000000 sq6500l
sq6500l111                  3.931845        1.000000 sq6500l
sq6500l112                  3.951263        1.000000 sq6500l
sq6500l113                  3.912043        1.000000 sq6500l
sq6500l114                  3.871222        1.000000 sq6500l
sq6500l115                  3.850169        1.000000 sq6500l
sq6500l116                  3.850169        1.000000 sq6500l
sq6500l117                  3.828663        1.000000 sq6500l
sq6500l118                  3.784212        1.000000 sq6500l
sq6500l119                  3.784212        1.000000 sq6500l
sq6500l120                  3.761223        1.000000 sq6500l
sq6500l121                  3.828663        1.000000 sq6500l
sq6500l122                  3.806685        1.000000 sq6500l
sq6500l123                  3.806685        1.000000 sq6500l
sq6500l124                  3.828663        1.000000 sq6500l
sq6500l125                  3.713596        1.000000 sq6500l
sq6500l126                  3.688904        1.000000 sq6500l
sq6500l127                  3.663587        1.000000 sq6500l
sq6500l128                  3.761223        1.000000 sq6500l
sq6500l129                  3.806685        1.000000 sq6500l
sq6500l130                  3.850169        1.000000 sq6500l
sq6500l131                  3.761223        1.000000 sq6500l
sq6500l132                  3.828663        1.000000 sq6500l
sq6500l133                  4.007351        1.000000 sq6500l
sq6500l134                  3.850169        1.000000 sq6500l
sq6500l135                  3.806685        1.000000 sq6500l
sq6500l136                  3.761223        1.000000 sq6500l
sq6500l137                  3.737693        1.000000 sq6500l
sq6500l138                  3.737693        1.000000 sq6500l
sq6500l139                  3.688904        1.000000 sq6500l
sq6500l140                  3.688904        1.000000 sq6500l
sq6500l141                  3.688904        1.000000 sq6500l
sq6500l142                  3.663587        1.000000 sq6500l
sq6500l143                  3.688904        1.000000 sq6500l
sq6500l144                  3.663587        1.000000 sq6500l
sq6500l145                  3.737693        1.000000 sq6500l
sq6500l146                  3.761223        1.000000 sq6500l
sq6500l147                  3.737693        1.000000 sq6500l
sq6500l148                  3.688904        1.000000 sq6500l
sq6500l149                  3.737693        1.000000 sq6500l
sq6500l150                  3.761223        1.000000 sq6500l
sq6500l151                  3.713596        1.000000 sq6500l
sq6500l152                  3.688904        1.000000 sq6500l
sq6500l153                  3.663587        1.000000 sq6500l
sq6500l154                  3.663587        1.000000 sq6500l
sq6500l155                  3.637612        1.000000 sq6500l
sq6500l156                  3.637612        1.000000 sq6500l
sq6500l157                  3.637612        1.000000 sq6500l
sq6500l158                  3.583547        1.000000 sq6500l
sq6500l159                  3.526390        1.000000 sq6500l
sq6500l160                  3.555377        1.000000 sq6500l
sq6500l161                  3.583547        1.000000 sq6500l
sq6500l162                  3.663587        1.000000 sq6500l
sq6500l163                  3.637612        1.000000 sq6500l
sq6500l164                  3.688904        1.000000 sq6500l
sq6500l165                  3.688904        1.000000 sq6500l
sq6500l166                  3.663587        1.000000 sq6500l
sq6500l167                  3.610945        1.000000 sq6500l
sq6500l168                  3.610945        1.000000 sq6500l
sq6500l169                  3.583547        1.000000 sq6500l
sq6500l170                  3.555377        1.000000 sq6500l
sq6500l171                  3.806685        1.000000 sq6500l
sq6500l172                  3.610945        1.000000 sq6500l
sq6500l173                  3.637612        1.000000 sq6500l
sq6500l174                  3.688904        1.000000 sq6500l
sq6500l175                  3.713596        1.000000 sq6500l
sq6500l176                  3.784212        1.000000 sq6500l
sq6500l177                  3.931845        1.000000 sq6500l
sq6500l178                  3.871222        1.000000 sq6500l
sq6500l179                  3.912043        1.000000 sq6500l
sq6500l180                  3.850169        1.000000 sq6500l
sq6500l181                  3.806685        1.000000 sq6500l
sq6500l182                  3.784212        1.000000 sq6500l
sq6500l183                  3.784212        1.000000 sq6500l
sq6500l184                  3.784212        1.000000 sq6500l
sq6500l185                  3.761223        1.000000 sq6500l
sq6500l186                  3.761223        1.000000 sq6500l
sq6500l187                  3.761223        1.000000 sq6500l
sq6500l188                  3.713596        1.000000 sq6500l
sq6500l189                  3.688904        1.000000 sq6500l
sq6500l190                  3.688904        1.000000 sq6500l
sq6500l191                  3.737693        1.000000 sq6500l
sq6500l192                  3.713596        1.000000 sq6500l
sq6500l193                  3.688904        1.000000 sq6500l
sq6500l194                  3.583547        1.000000 sq6500l
sq6500l195                  3.526390        1.000000 sq6500l
sq6500l196                  3.526390        1.000000 sq6500l
sq6500l197                  3.526390        1.000000 sq6500l
sq6500l198                  3.610945        1.000000 sq6500l
sq6500l199                  3.526390        1.000000 sq6500l
sq6500l200                  3.434019        1.000000 sq6500l
sq6500l201                  3.401231        1.000000 sq6500l
sq6500l202                  3.401231        1.000000 sq6500l
sq6500l203                  3.526390        1.000000 sq6500l
sq6500l204                  6.104795        1.000000 sq6500l
sq6500l205                  5.442422        1.000000 sq6500l
sq6500l206                  4.418853        1.000000 sq6500l
sq6500l207                  4.158899        1.000000 sq6500l
sq6500l208                  4.007351        1.000000 sq6500l
sq6500l209                  3.951263        1.000000 sq6500l
sq6500l210                  3.912043        1.000000 sq6500l
sq6500l211                  3.828663        1.000000 sq6500l
sq6500l212                  3.761223        1.000000 sq6500l
sq6500l213                  3.737693        1.000000 sq6500l
sq6500l214                  3.713596        1.000000 sq6500l
sq6500l215                  3.688904        1.000000 sq6500l
sq6500l216                  3.610945        1.000000 sq6500l
sq6500l217                  3.610945        1.000000 sq6500l
sq6500l218                  3.555377        1.000000 sq6500l
sq6500l219                  3.526390        1.000000 sq6500l
sq6500l220                  3.555377        1.000000 sq6500l
sq6500l221                  3.465767        1.000000 sq6500l
sq6500l222                  3.555377        1.000000 sq6500l
sq6500l223                  4.025370        1.000000 sq6500l
sq6500l224                  3.806685        1.000000 sq6500l
sq6500l225                  3.663587        1.000000 sq6500l
sq6500l226                  3.583547        1.000000 sq6500l
sq6500l227                  3.663587        1.000000 sq6500l
sq6500l228                  3.637612        1.000000 sq6500l
sq6500l229                  3.610945        1.000000 sq6500l
sq6500l230                  3.610945        1.000000 sq6500l
sq6500l231                  3.583547        1.000000 sq6500l
sq6500l232                  3.583547        1.000000 sq6500l
sq6500l233                  3.583547        1.000000 sq6500l
sq6500l234                  3.637612        1.000000 sq6500l
sq6500l235                  3.850169        1.000000 sq6500l
sq6500l236                  3.891841        1.000000 sq6500l
sq6500l237                  3.688904        1.000000 sq6500l
sq6500l238                  3.610945        1.000000 sq6500l
sq6500l239                  3.663587        1.000000 sq6500l
sq6500l240                  3.713596        1.000000 sq6500l
sq6500l241                  3.663587        1.000000 sq6500l
sq6500l242                  3.610945        1.000000 sq6500l
sq6500l243                  3.583547        1.000000 sq6500l
sq6500l244                  3.555377        1.000000 sq6500l
sq6500l245                  3.555377        1.000000 sq6500l
sq6500l246                  4.158899        1.000000 sq6500l
sq6500l247                  3.871222        1.000000 sq6500l
sq6500l248                  3.663587        1.000000 sq6500l
sq6500l249                  3.610945        1.000000 sq6500l
sq6500l250                  4.736207        1.000000 sq6500l
sq6500l251                  4.234121        1.000000 sq6500l
sq6500l252                  3.989003        1.000000 sq6500l
sq6500l253                  3.806685        1.000000 sq6500l
sq6500l254                  3.713596        1.000000 sq6500l
sq6500l255                  3.663587        1.000000 sq6500l
sq6500l256                  3.637612        1.000000 sq6500l
sq6500l257                  3.663587        1.000000 sq6500l
sq6500l258                  3.784212        1.000000 sq6500l
sq6500l259                  3.713596        1.000000 sq6500l
sq6500l260                  3.663587        1.000000 sq6500l
sq6500l261                  3.637612        1.000000 sq6500l
sq6500l262                  3.637612        1.000000 sq6500l
sq6500l263                  3.737693        1.000000 sq6500l
sq6500l264                  3.951263        1.000000 sq6500l
sq6500l265                  3.912043        1.000000 sq6500l
sq6500l266                  3.784212        1.000000 sq6500l
sq6500l267                  3.850169        1.000000 sq6500l
sq6500l268                  3.828663        1.000000 sq6500l
sq6500l269                  3.761223        1.000000 sq6500l
sq6500l270                  3.761223        1.000000 sq6500l
sq6500l271                  3.912043        1.000000 sq6500l
sq6500l272                  3.828663        1.000000 sq6500l
sq6500l273                  3.761223        1.000000 sq6500l
sq6500l274                  3.688904        1.000000 sq6500l
sq6500l275                  3.688904        1.000000 sq6500l
sq6500l276                  3.784212        1.000000 sq6500l
sq6500l277                  3.713596        1.000000 sq6500l
sq6500l278                  3.688904        1.000000 sq6500l
sq6500l279                  3.663587        1.000000 sq6500l
sq6500l280                  3.761223        1.000000 sq6500l
sq6500l281                  3.931845        1.000000 sq6500l
sq6500l282                  3.850169        1.000000 sq6500l
sq6500l283                  4.276680        1.000000 sq6500l
sq6500l284                  4.110890        1.000000 sq6500l
sq6500l285                  3.931845        1.000000 sq6500l
sq6500l286                  3.891841        1.000000 sq6500l
sq6500l287                  3.806685        1.000000 sq6500l
sq6500l288                  3.784212        1.000000 sq6500l
sq6500l289                  3.931845        1.000000 sq6500l
sq6500l290                  4.060460        1.000000 sq6500l
sq6500l291                  4.007351        1.000000 sq6500l
sq6500l292                  3.931845        1.000000 sq6500l
sq6500l293                  3.871222        1.000000 sq6500l
sq6500l294                  3.912043        1.000000 sq6500l
sq6500l295                  4.234121        1.000000 sq6500l
sq6500l296                  4.025370        1.000000 sq6500l
sq6500l297                  3.931845        1.000000 sq6500l
sq6500l298                  3.850169        1.000000 sq6500l
sq6500l299                  3.806685        1.000000 sq6500l
sq6500l300                  3.784212        1.000000 sq6500l
sq6500l301                  3.761223        1.000000 sq6500l
sq6500l302                  3.806685        1.000000 sq6500l
sq6500l303                  5.010642        1.000000 sq6500l
sq6500l304                  4.962852        1.000000 sq6500l
sq6500l305                  4.394462        1.000000 sq6500l
sq6500l306                  4.204708        1.000000 sq6500l
sq6500l307                  4.158899        1.000000 sq6500l
sq6500l308                  4.143151        1.000000 sq6500l
sq6500l309                  4.189670        1.000000 sq6500l
sq6500l310                  4.077554        1.000000 sq6500l
sq6500l311                  4.077554        1.000000 sq6500l
sq6500l312                  4.060460        1.000000 sq6500l
sq6500l313                  4.025370        1.000000 sq6500l
sq6500l314                  4.077554        1.000000 sq6500l
sq6500l315                  4.304079        1.000000 sq6500l
sq6500l316                  4.343818        1.000000 sq6500l
sq6500l317                  4.204708        1.000000 sq6500l
sq6500l318                  4.488648        1.000000 sq6500l
sq6500l319                  4.234121        1.000000 sq6500l
sq6500l320                  4.418853        1.000000 sq6500l
sq6500l321                  4.532610        1.000000 sq6500l
sq6500l322                  4.248510        1.000000 sq6500l
sq6500l323                  4.110890        1.000000 sq6500l
sq6500l324                  4.094361        1.000000 sq6500l
sq6500l325                  4.060460        1.000000 sq6500l
sq6500l326                  4.043069        1.000000 sq6500l
sq6500l327                  4.043069        1.000000 sq6500l
sq6500l328                  4.025370        1.000000 sq6500l
sq6500l329                  3.989003        1.000000 sq6500l
sq6500l330                  3.989003        1.000000 sq6500l
sq6500l331                  3.951263        1.000000 sq6500l
sq6500l332                  3.951263        1.000000 sq6500l
sq6500l333                  4.007351        1.000000 sq6500l
sq6500l334                  3.951263        1.000000 sq6500l
sq6500l335                  3.970311        1.000000 sq6500l
sq6500l336                  3.951263        1.000000 sq6500l
sq6500l337                  3.931845        1.000000 sq6500l
sq6500l338                  3.912043        1.000000 sq6500l
sq6500l339                  3.912043        1.000000 sq6500l
sq6500l340                  3.912043        1.000000 sq6500l
sq6500l341                  3.912043        1.000000 sq6500l
sq6500l342                  3.931845        1.000000 sq6500l
sq6500l343                  3.931845        1.000000 sq6500l
sq6500l344                  3.891841        1.000000 sq6500l
sq6500l345                  3.871222        1.000000 sq6500l
sq6500l346                  3.850169        1.000000 sq6500l
sq6500l347                  3.828663        1.000000 sq6500l
sq6500l348                  3.828663        1.000000 sq6500l
sq6500l349                  3.806685        1.000000 sq6500l
sq6500l350                  3.806685        1.000000 sq6500l
sq6500l351                  3.806685        1.000000 sq6500l
sq6500l352                  3.784212        1.000000 sq6500l
sq6500l353                  3.784212        1.000000 sq6500l
sq6500l354                  3.784212        1.000000 sq6500l
sq6500l355                  3.828663        1.000000 sq6500l
sq6500l356                  3.806685        1.000000 sq6500l
sq6500l357                  3.806685        1.000000 sq6500l
sq6500l358                  3.806685        1.000000 sq6500l
sq6500l359                  3.761223        1.000000 sq6500l
sq6500l360                  3.761223        1.000000 sq6500l
sq6500l361                  3.761223        1.000000 sq6500l
sq6500l362                  3.761223        1.000000 sq6500l
sq6500l363                  3.761223        1.000000 sq6500l
sq6500l364                  3.761223        1.000000 sq6500l
sq6500l365                  3.784212        1.000000 sq6500l
sq6500l366                  3.761223        1.000000 sq6500l
sq6500l367                  3.784212        1.000000 sq6500l
sq6500l368                  3.761223        1.000000 sq6500l
sq6500l369                  3.761223        1.000000 sq6500l
sq6500l370                  3.737693        1.000000 sq6500l
sq6500l371                  3.737693        1.000000 sq6500l
sq6500l372                  3.761223        1.000000 sq6500l
sq6500l373                  3.761223        1.000000 sq6500l
sq6500l374                  3.761223        1.000000 sq6500l
sq6500l375                  3.784212        1.000000 sq6500l
sq6500l376                  3.737693        1.000000 sq6500l
sq6500l377                  3.761223        1.000000 sq6500l
sq6500l378                  3.737693        1.000000 sq6500l
sq6500l379                  3.761223        1.000000 sq6500l
sq6500l380                  3.761223        1.000000 sq6500l
sq6500l381                  3.784212        1.000000 sq6500l
sq6500l382                  3.806685        1.000000 sq6500l
sq6500l383                  3.806685        1.000000 sq6500l
sq6500l384                  3.806685        1.000000 sq6500l
sq6500l385                  3.806685        1.000000 sq6500l
sq6500l386                  3.806685        1.000000 sq6500l
sq6500l387                  3.784212        1.000000 sq6500l
sq6500l388                  3.737693        1.000000 sq6500l
sq6500l389                  3.713596        1.000000 sq6500l
sq6500l390                  3.688904        1.000000 sq6500l
sq6500l391                  3.688904        1.000000 sq6500l
sq6500l392                  3.688904        1.000000 sq6500l
sq6500l393                  3.688904        1.000000 sq6500l
sq6500l394                  3.713596        1.000000 sq6500l
sq6500l395                  3.761223        1.000000 sq6500l
sq6500l396                  3.761223        1.000000 sq6500l
sq6500l397                  3.737693        1.000000 sq6500l
sq6500l398                  3.931845        1.000000 sq6500l
sq6500l399                  4.158899        1.000000 sq6500l
sq6500l400                  4.077554        1.000000 sq6500l
sq6500l401                  4.060460        1.000000 sq6500l
sq6500l402                  4.060460        1.000000 sq6500l
sq6500l403                  4.025370        1.000000 sq6500l
sq6500l404                  3.931845        1.000000 sq6500l
sq6500l405                  3.871222        1.000000 sq6500l
sq6500l406                  3.828663        1.000000 sq6500l
sq6500l407                  3.784212        1.000000 sq6500l
sq6500l408                  3.784212        1.000000 sq6500l
sq6500l409                  3.761223        1.000000 sq6500l
sq6500l410                  3.761223        1.000000 sq6500l
sq6500l411                  3.761223        1.000000 sq6500l
sq6500l412                  3.761223        1.000000 sq6500l
sq6500l413                  3.761223        1.000000 sq6500l
sq6500l414                  3.806685        1.000000 sq6500l
sq6500l415                  3.784212        1.000000 sq6500l
sq6500l416                  3.761223        1.000000 sq6500l
sq6500l417                  3.761223        1.000000 sq6500l
sq6500l418                  3.761223        1.000000 sq6500l
sq6500l419                  3.737693        1.000000 sq6500l
sq6500l420                  3.761223        1.000000 sq6500l
sq6500l421                  3.737693        1.000000 sq6500l
sq6500l422                  3.737693        1.000000 sq6500l
sq6500l423                  3.737693        1.000000 sq6500l
sq6500l424                  3.737693        1.000000 sq6500l
sq6500l425                  3.761223        1.000000 sq6500l
sq6500l426                  3.784212        1.000000 sq6500l
sq6500l427                  3.850169        1.000000 sq6500l
sq6500l428                  3.850169        1.000000 sq6500l
sq6500l429                  3.784212        1.000000 sq6500l
sq6500l430                  3.761223        1.000000 sq6500l
sq6500l431                  3.784212        1.000000 sq6500l
sq6500l432                  4.477348        1.000000 sq6500l
sq6500l433                  4.553887        1.000000 sq6500l
sq6500l434                  4.382039        1.000000 sq6500l
sq6500l435                  4.356722        1.000000 sq6500l
sq6500l436                  4.442663        1.000000 sq6500l
sq6500l437                  4.442663        1.000000 sq6500l
sq6500l438                  4.553887        1.000000 sq6500l
sq6500l439                  4.682140        1.000000 sq6500l
sq6500l440                  5.147500        1.000000 sq6500l
sq6500l441                  5.247029        1.000000 sq6500l
sq6500l442                  4.644401        1.000000 sq6500l
sq6500l443                  4.442663        1.000000 sq6500l
sq6500l444                  4.430829        1.000000 sq6500l
sq6500l445                  4.442663        1.000000 sq6500l
sq6500l446                  4.356722        1.000000 sq6500l
sq6500l447                  4.356722        1.000000 sq6500l
sq6500l448                  4.304079        1.000000 sq6500l
sq6500l449                  4.234121        1.000000 sq6500l
sq6500l450                  4.262694        1.000000 sq6500l
sq6500l451                  4.248510        1.000000 sq6500l
sq6500l452                  4.219522        1.000000 sq6500l
sq6500l453                  4.189670        1.000000 sq6500l
sq6500l454                  4.234121        1.000000 sq6500l
sq6500l455                  4.174403        1.000000 sq6500l
sq6500l456                  4.262694        1.000000 sq6500l
sq6500l457                  4.262694        1.000000 sq6500l
sq6500l458                  4.262694        1.000000 sq6500l
sq6500l459                  4.189670        1.000000 sq6500l
sq6500l460                  4.158899        1.000000 sq6500l