pcf
* control data
restart estimation
       6    3665       4       0       2 nparsec=0 nequation=0
     1     1   single   point   1   0   0
10.0   2.0    0.3    0.03    10  999
5.0   5.0   1.0e-3
0.1   aui
30   .005  4   4  .005   4
1    1    1
* parameter groups
prcp         relative      1.00000E-02   1.00000E-05  switch       2.0000      outside_pts
evap         relative      1.00000E-02   1.00000E-05  switch       2.0000      outside_pts
soilzone     relative      1.00000E-02   1.00000E-05  switch       2.0000      outside_pts
ssres        relative      1.00000E-02   1.00000E-05  switch       2.0000      outside_pts
* parameter data
jhcoef_fac   log    factor        1.0000       0.75000        1.5000      evap            1.0000        0.0000        1
rnadj_fac    log    factor        1.0000       0.75000        1.5000      prcp            1.0000        0.0000        1
snwadj_fac   log    factor        1.0000       0.75000        1.5000      prcp            1.0000        0.0000        1
pfd_fac      log    factor        1.0000       0.75000        1.5000      soilzone        1.0000        0.0000        1
s2gw_fac     log    factor        1.0000       0.75000        1.5000      ssres           1.0000        0.0000        1
s2gwe_fac    log    factor        1.0000       0.75000        1.5000      ssres           1.0000        0.0000        1
* observation groups
sq6500
flow_dur_sim
* observation data
sq6500_1               18.00000        5.555556E-02  sq6500
sq6500_2               22.00000        4.545455E-02  sq6500
sq6500_3               21.00000        4.761905E-02  sq6500
sq6500_4               19.00000        5.263158E-02  sq6500
sq6500_5               19.00000        5.263158E-02  sq6500
sq6500_6               19.00000        5.263158E-02  sq6500
sq6500_7               20.00000        5.000000E-02  sq6500
sq6500_8               21.00000        4.761905E-02  sq6500
sq6500_9               25.00000        4.000000E-02  sq6500
sq6500_10              28.00000        3.571429E-02  sq6500
sq6500_11              27.00000        3.703704E-02  sq6500
sq6500_12              23.00000        4.347826E-02  sq6500
sq6500_13              23.00000        4.347826E-02  sq6500
sq6500_14              23.00000        4.347826E-02  sq6500
sq6500_15              22.00000        4.545455E-02  sq6500
sq6500_16              23.00000        4.347826E-02  sq6500
sq6500_17              26.00000        3.846154E-02  sq6500
sq6500_18              23.00000        4.347826E-02  sq6500
sq6500_19              22.00000        4.545455E-02  sq6500
sq6500_20              23.00000        4.347826E-02  sq6500
sq6500_21              22.00000        4.545455E-02  sq6500
sq6500_22              22.00000        4.545455E-02  sq6500
sq6500_23              21.00000        4.761905E-02  sq6500
sq6500_24              21.00000        4.761905E-02  sq6500
sq6500_25              20.00000        5.000000E-02  sq6500
sq6500_26              20.00000        5.000000E-02  sq6500
sq6500_27              20.00000        5.000000E-02  sq6500
sq6500_28              20.00000        5.000000E-02  sq6500
sq6500_29              20.00000        5.000000E-02  sq6500
sq6500_30              20.00000        5.000000E-02  sq6500
sq6500_31              20.00000        5.000000E-02  sq6500
sq6500_32              20.00000        5.000000E-02  sq6500
sq6500_33              20.00000        5.000000E-02  sq6500
sq6500_34              23.00000        4.347826E-02  sq6500
sq6500_35              22.00000        4.545455E-02  sq6500
sq6500_36              25.00000        4.000000E-02  sq6500
sq6500_37              22.00000        4.545455E-02  sq6500
sq6500_38              21.00000        4.761905E-02  sq6500
sq6500_39              22.00000        4.545455E-02  sq6500
sq6500_40              22.00000        4.545455E-02  sq6500
sq6500_41              21.00000        4.761905E-02  sq6500
sq6500_42              21.00000        4.761905E-02  sq6500
sq6500_43              21.00000        4.761905E-02  sq6500
sq6500_44              21.00000        4.761905E-02  sq6500
sq6500_45              21.00000        4.761905E-02  sq6500
sq6500_46              22.00000        4.545455E-02  sq6500
sq6500_47              21.00000        4.761905E-02  sq6500
sq6500_48              21.00000        4.761905E-02  sq6500
sq6500_49              21.00000        4.761905E-02  sq6500
sq6500_50              21.00000        4.761905E-02  sq6500
sq6500_51              24.00000        4.166667E-02  sq6500
sq6500_52              22.00000        4.545455E-02  sq6500
sq6500_53              22.00000        4.545455E-02  sq6500
sq6500_54              21.00000        4.761905E-02  sq6500
sq6500_55              21.00000        4.761905E-02  sq6500
sq6500_56              21.00000        4.761905E-02  sq6500
sq6500_57              29.00000        3.448276E-02  sq6500
sq6500_58              27.00000        3.703704E-02  sq6500
sq6500_59              23.00000        4.347826E-02  sq6500
sq6500_60              22.00000        4.545455E-02  sq6500
sq6500_61              22.00000        4.545455E-02  sq6500
sq6500_62              21.00000        4.761905E-02  sq6500
sq6500_63              21.00000        4.761905E-02  sq6500
sq6500_64              21.00000        4.761905E-02  sq6500
sq6500_65              21.00000        4.761905E-02  sq6500
sq6500_66              20.00000        5.000000E-02  sq6500
sq6500_67              20.00000        5.000000E-02  sq6500
sq6500_68              20.00000        5.000000E-02  sq6500
sq6500_69              21.00000        4.761905E-02  sq6500
sq6500_70              21.00000        4.761905E-02  sq6500
sq6500_71              22.00000        4.545455E-02  sq6500
sq6500_72              23.00000        4.347826E-02  sq6500
sq6500_73              24.00000        4.166667E-02  sq6500
sq6500_74              23.00000        4.347826E-02  sq6500
sq6500_75              23.00000        4.347826E-02  sq6500
sq6500_76              21.00000        4.761905E-02  sq6500
sq6500_77              22.00000        4.545455E-02  sq6500
sq6500_78              23.00000        4.347826E-02  sq6500
sq6500_79              22.00000        4.545455E-02  sq6500
sq6500_80              22.00000        4.545455E-02  sq6500
sq6500_81              23.00000        4.347826E-02  sq6500
sq6500_82              22.00000        4.545455E-02  sq6500
sq6500_83              22.00000        4.545455E-02  sq6500
sq6500_84              21.00000        4.761905E-02  sq6500
sq6500_85              21.00000        4.761905E-02  sq6500
sq6500_86              21.00000        4.761905E-02  sq6500
sq6500_87              21.00000        4.761905E-02  sq6500
sq6500_88              22.00000        4.545455E-02  sq6500
sq6500_89              21.00000        4.761905E-02  sq6500
sq6500_90              19.00000        5.263158E-02  sq6500
sq6500_91              21.00000        4.761905E-02  sq6500
sq6500_92              21.00000        4.761905E-02  sq6500
sq6500_93              20.00000        5.000000E-02  sq6500
sq6500_94              20.00000        5.000000E-02  sq6500
sq6500_95              20.00000        5.000000E-02  sq6500
sq6500_96              20.00000        5.000000E-02  sq6500
sq6500_97              21.00000        4.761905E-02  sq6500
sq6500_98              22.00000        4.545455E-02  sq6500
sq6500_99              21.00000        4.761905E-02  sq6500
sq6500_100             21.00000        4.761905E-02  sq6500
sq6500_101             21.00000        4.761905E-02  sq6500
sq6500_102             21.00000        4.761905E-02  sq6500
sq6500_103             21.00000        4.761905E-02  sq6500
sq6500_104             21.00000        4.761905E-02  sq6500
sq6500_105             21.00000        4.761905E-02  sq6500
sq6500_106             22.00000        4.545455E-02  sq6500
sq6500_107             21.00000        4.761905E-02  sq6500
sq6500_108             20.00000        5.000000E-02  sq6500
sq6500_109             21.00000        4.761905E-02  sq6500
sq6500_110             21.00000        4.761905E-02  sq6500
sq6500_111             20.00000        5.000000E-02  sq6500
sq6500_112             20.00000        5.000000E-02  sq6500
sq6500_113             20.00000        5.000000E-02  sq6500
sq6500_114             20.00000        5.000000E-02  sq6500
sq6500_115             20.00000        5.000000E-02  sq6500
sq6500_116             20.00000        5.000000E-02  sq6500
sq6500_117             20.00000        5.000000E-02  sq6500
sq6500_118             19.00000        5.263158E-02  sq6500
sq6500_119             19.00000        5.263158E-02  sq6500
sq6500_120             19.00000        5.263158E-02  sq6500
sq6500_121             19.00000        5.263158E-02  sq6500
sq6500_122             19.00000        5.263158E-02  sq6500
sq6500_123             20.00000        5.000000E-02  sq6500
sq6500_124             20.00000        5.000000E-02  sq6500
sq6500_125             20.00000        5.000000E-02  sq6500
sq6500_126             21.00000        4.761905E-02  sq6500
sq6500_127             22.00000        4.545455E-02  sq6500
sq6500_128             22.00000        4.545455E-02  sq6500
sq6500_129             23.00000        4.347826E-02  sq6500
sq6500_130             27.00000        3.703704E-02  sq6500
sq6500_131             27.00000        3.703704E-02  sq6500
sq6500_132             27.00000        3.703704E-02  sq6500
sq6500_133             24.00000        4.166667E-02  sq6500
sq6500_134             24.00000        4.166667E-02  sq6500
sq6500_135             23.00000        4.347826E-02  sq6500
sq6500_136             23.00000        4.347826E-02  sq6500
sq6500_137             23.00000        4.347826E-02  sq6500
sq6500_138             22.00000        4.545455E-02  sq6500
sq6500_139             22.00000        4.545455E-02  sq6500
sq6500_140             22.00000        4.545455E-02  sq6500
sq6500_141             23.00000        4.347826E-02  sq6500
sq6500_142             24.00000        4.166667E-02  sq6500
sq6500_143             32.00000        3.125000E-02  sq6500
sq6500_144             47.00000        2.127660E-02  sq6500
sq6500_145             37.00000        2.702703E-02  sq6500
sq6500_146             30.00000        3.333333E-02  sq6500
sq6500_147             28.00000        3.571429E-02  sq6500
sq6500_148             26.00000        3.846154E-02  sq6500
sq6500_149             25.00000        4.000000E-02  sq6500
sq6500_150             24.00000        4.166667E-02  sq6500
sq6500_151             69.00000        1.449275E-02  sq6500
sq6500_152             223.0000        4.484305E-03  sq6500
sq6500_153             65.00000        1.538462E-02  sq6500
sq6500_154             48.00000        2.083333E-02  sq6500
sq6500_155             50.00000        2.000000E-02  sq6500
sq6500_156             66.00000        1.515152E-02  sq6500
sq6500_157             44.00000        2.272727E-02  sq6500
sq6500_158             40.00000        2.500000E-02  sq6500
sq6500_159             39.00000        2.564103E-02  sq6500
sq6500_160             34.00000        2.941176E-02  sq6500
sq6500_161             36.00000        2.777778E-02  sq6500
sq6500_162             34.00000        2.941176E-02  sq6500
sq6500_163             31.00000        3.225806E-02  sq6500
sq6500_164             29.00000        3.448276E-02  sq6500
sq6500_165             30.00000        3.333333E-02  sq6500
sq6500_166             29.00000        3.448276E-02  sq6500
sq6500_167             29.00000        3.448276E-02  sq6500
sq6500_168             36.00000        2.777778E-02  sq6500
sq6500_169             35.00000        2.857143E-02  sq6500
sq6500_170             33.00000        3.030303E-02  sq6500
sq6500_171             33.00000        3.030303E-02  sq6500
sq6500_172             32.00000        3.125000E-02  sq6500
sq6500_173             60.00000        1.666667E-02  sq6500
sq6500_174             41.00000        2.439024E-02  sq6500
sq6500_175             36.00000        2.777778E-02  sq6500
sq6500_176             37.00000        2.702703E-02  sq6500
sq6500_177             61.00000        1.639344E-02  sq6500
sq6500_178             48.00000        2.083333E-02  sq6500
sq6500_179             37.00000        2.702703E-02  sq6500
sq6500_180             35.00000        2.857143E-02  sq6500
sq6500_181             32.00000        3.125000E-02  sq6500
sq6500_182             29.00000        3.448276E-02  sq6500
sq6500_183             28.00000        3.571429E-02  sq6500
sq6500_184             27.00000        3.703704E-02  sq6500
sq6500_185             26.00000        3.846154E-02  sq6500
sq6500_186             23.00000        4.347826E-02  sq6500
sq6500_187             23.00000        4.347826E-02  sq6500
sq6500_188             23.00000        4.347826E-02  sq6500
sq6500_189             25.00000        4.000000E-02  sq6500
sq6500_190             61.00000        1.639344E-02  sq6500
sq6500_191             52.00000        1.923077E-02  sq6500
sq6500_192             40.00000        2.500000E-02  sq6500
sq6500_193             62.00000        1.612903E-02  sq6500
sq6500_194             130.0000        7.692308E-03  sq6500
sq6500_195             135.0000        7.407407E-03  sq6500
sq6500_196             94.00000        1.063830E-02  sq6500
sq6500_197             68.00000        1.470588E-02  sq6500
sq6500_198             56.00000        1.785714E-02  sq6500
sq6500_199             51.00000        1.960784E-02  sq6500
sq6500_200             46.00000        2.173913E-02  sq6500
sq6500_201             45.00000        2.222222E-02  sq6500
sq6500_202             41.00000        2.439024E-02  sq6500
sq6500_203             40.00000        2.500000E-02  sq6500
sq6500_204             41.00000        2.439024E-02  sq6500
sq6500_205             38.00000        2.631579E-02  sq6500
sq6500_206             36.00000        2.777778E-02  sq6500
sq6500_207             35.00000        2.857143E-02  sq6500
sq6500_208             35.00000        2.857143E-02  sq6500
sq6500_209             36.00000        2.777778E-02  sq6500
sq6500_210             78.00000        1.282051E-02  sq6500
sq6500_211             54.00000        1.851852E-02  sq6500
sq6500_212             45.00000        2.222222E-02  sq6500
sq6500_213             41.00000        2.439024E-02  sq6500
sq6500_214             37.00000        2.702703E-02  sq6500
sq6500_215             35.00000        2.857143E-02  sq6500
sq6500_216             59.00000        1.694915E-02  sq6500
sq6500_217             59.00000        1.694915E-02  sq6500
sq6500_218             48.00000        2.083333E-02  sq6500
sq6500_219             44.00000        2.272727E-02  sq6500
sq6500_220             41.00000        2.439024E-02  sq6500
sq6500_221             38.00000        2.631579E-02  sq6500
sq6500_222             36.00000        2.777778E-02  sq6500
sq6500_223             34.00000        2.941176E-02  sq6500
sq6500_224             34.00000        2.941176E-02  sq6500
sq6500_225             34.00000        2.941176E-02  sq6500
sq6500_226             33.00000        3.030303E-02  sq6500
sq6500_227             32.00000        3.125000E-02  sq6500
sq6500_228             31.00000        3.225806E-02  sq6500
sq6500_229             38.00000        2.631579E-02  sq6500
sq6500_230             36.00000        2.777778E-02  sq6500
sq6500_231             33.00000        3.030303E-02  sq6500
sq6500_232             35.00000        2.857143E-02  sq6500
sq6500_233             34.00000        2.941176E-02  sq6500
sq6500_234             34.00000        2.941176E-02  sq6500
sq6500_235             33.00000        3.030303E-02  sq6500
sq6500_236             34.00000        2.941176E-02  sq6500
sq6500_237             35.00000        2.857143E-02  sq6500
sq6500_238             32.00000        3.125000E-02  sq6500
sq6500_239             31.00000        3.225806E-02  sq6500
sq6500_240             30.00000        3.333333E-02  sq6500
sq6500_241             32.00000        3.125000E-02  sq6500
sq6500_242             31.00000        3.225806E-02  sq6500
sq6500_243             30.00000        3.333333E-02  sq6500
sq6500_244             31.00000        3.225806E-02  sq6500
sq6500_245             31.00000        3.225806E-02  sq6500
sq6500_246             30.00000        3.333333E-02  sq6500
sq6500_247             29.00000        3.448276E-02  sq6500
sq6500_248             29.00000        3.448276E-02  sq6500
sq6500_249             28.00000        3.571429E-02  sq6500
sq6500_250             29.00000        3.448276E-02  sq6500
sq6500_251             27.00000        3.703704E-02  sq6500
sq6500_252             28.00000        3.571429E-02  sq6500
sq6500_253             28.00000        3.571429E-02  sq6500
sq6500_254             26.00000        3.846154E-02  sq6500
sq6500_255             25.00000        4.000000E-02  sq6500
sq6500_256             29.00000        3.448276E-02  sq6500
sq6500_257             51.00000        1.960784E-02  sq6500
sq6500_258             35.00000        2.857143E-02  sq6500
sq6500_259             30.00000        3.333333E-02  sq6500
sq6500_260             29.00000        3.448276E-02  sq6500
sq6500_261             27.00000        3.703704E-02  sq6500
sq6500_262             25.00000        4.000000E-02  sq6500
sq6500_263             25.00000        4.000000E-02  sq6500
sq6500_264             30.00000        3.333333E-02  sq6500
sq6500_265             25.00000        4.000000E-02  sq6500
sq6500_266             24.00000        4.166667E-02  sq6500
sq6500_267             23.00000        4.347826E-02  sq6500
sq6500_268             24.00000        4.166667E-02  sq6500
sq6500_269             24.00000        4.166667E-02  sq6500
sq6500_270             26.00000        3.846154E-02  sq6500
sq6500_271             25.00000        4.000000E-02  sq6500
sq6500_272             25.00000        4.000000E-02  sq6500
sq6500_273             29.00000        3.448276E-02  sq6500
sq6500_274             34.00000        2.941176E-02  sq6500
sq6500_275             27.00000        3.703704E-02  sq6500
sq6500_276             26.00000        3.846154E-02  sq6500
sq6500_277             25.00000        4.000000E-02  sq6500
sq6500_278             25.00000        4.000000E-02  sq6500
sq6500_279             33.00000        3.030303E-02  sq6500
sq6500_280             37.00000        2.702703E-02  sq6500
sq6500_281             28.00000        3.571429E-02  sq6500
sq6500_282             28.00000        3.571429E-02  sq6500
sq6500_283             26.00000        3.846154E-02  sq6500
sq6500_284             26.00000        3.846154E-02  sq6500
sq6500_285             26.00000        3.846154E-02  sq6500
sq6500_286             25.00000        4.000000E-02  sq6500
sq6500_287             24.00000        4.166667E-02  sq6500
sq6500_288             25.00000        4.000000E-02  sq6500
sq6500_289             25.00000        4.000000E-02  sq6500
sq6500_290             25.00000        4.000000E-02  sq6500
sq6500_291             25.00000        4.000000E-02  sq6500
sq6500_292             25.00000        4.000000E-02  sq6500
sq6500_293             27.00000        3.703704E-02  sq6500
sq6500_294             28.00000        3.571429E-02  sq6500
sq6500_295             24.00000        4.166667E-02  sq6500
sq6500_296             23.00000        4.347826E-02  sq6500
sq6500_297             23.00000        4.347826E-02  sq6500
sq6500_298             22.00000        4.545455E-02  sq6500
sq6500_299             22.00000        4.545455E-02  sq6500
sq6500_300             23.00000        4.347826E-02  sq6500
sq6500_301             25.00000        4.000000E-02  sq6500
sq6500_302             24.00000        4.166667E-02  sq6500
sq6500_303             24.00000        4.166667E-02  sq6500
sq6500_304             24.00000        4.166667E-02  sq6500
sq6500_305             24.00000        4.166667E-02  sq6500
sq6500_306             23.00000        4.347826E-02  sq6500
sq6500_307             23.00000        4.347826E-02  sq6500
sq6500_308             22.00000        4.545455E-02  sq6500
sq6500_309             21.00000        4.761905E-02  sq6500
sq6500_310             22.00000        4.545455E-02  sq6500
sq6500_311             53.00000        1.886792E-02  sq6500
sq6500_312             32.00000        3.125000E-02  sq6500
sq6500_313             24.00000        4.166667E-02  sq6500
sq6500_314             22.00000        4.545455E-02  sq6500
sq6500_315             22.00000        4.545455E-02  sq6500
sq6500_316             22.00000        4.545455E-02  sq6500
sq6500_317             23.00000        4.347826E-02  sq6500
sq6500_318             23.00000        4.347826E-02  sq6500
sq6500_319             24.00000        4.166667E-02  sq6500
sq6500_320             25.00000        4.000000E-02  sq6500
sq6500_321             25.00000        4.000000E-02  sq6500
sq6500_322             25.00000        4.000000E-02  sq6500
sq6500_323             27.00000        3.703704E-02  sq6500
sq6500_324             26.00000        3.846154E-02  sq6500
sq6500_325             26.00000        3.846154E-02  sq6500
sq6500_326             26.00000        3.846154E-02  sq6500
sq6500_327             26.00000        3.846154E-02  sq6500
sq6500_328             26.00000        3.846154E-02  sq6500
sq6500_329             27.00000        3.703704E-02  sq6500
sq6500_330             27.00000        3.703704E-02  sq6500
sq6500_331             26.00000        3.846154E-02  sq6500
sq6500_332             25.00000        4.000000E-02  sq6500
sq6500_333             28.00000        3.571429E-02  sq6500
sq6500_334             26.00000        3.846154E-02  sq6500
sq6500_335             24.00000        4.166667E-02  sq6500
sq6500_336             23.00000        4.347826E-02  sq6500
sq6500_337             24.00000        4.166667E-02  sq6500
sq6500_338             24.00000        4.166667E-02  sq6500
sq6500_339             24.00000        4.166667E-02  sq6500
sq6500_340             24.00000        4.166667E-02  sq6500
sq6500_341             23.00000        4.347826E-02  sq6500
sq6500_342             23.00000        4.347826E-02  sq6500
sq6500_343             24.00000        4.166667E-02  sq6500
sq6500_344             23.00000        4.347826E-02  sq6500
sq6500_345             24.00000        4.166667E-02  sq6500
sq6500_346             35.00000        2.857143E-02  sq6500
sq6500_347             26.00000        3.846154E-02  sq6500
sq6500_348             32.00000        3.125000E-02  sq6500
sq6500_349             45.00000        2.222222E-02  sq6500
sq6500_350             31.00000        3.225806E-02  sq6500
sq6500_351             25.00000        4.000000E-02  sq6500
sq6500_352             29.00000        3.448276E-02  sq6500
sq6500_353             24.00000        4.166667E-02  sq6500
sq6500_354             23.00000        4.347826E-02  sq6500
sq6500_355             22.00000        4.545455E-02  sq6500
sq6500_356             23.00000        4.347826E-02  sq6500
sq6500_357             24.00000        4.166667E-02  sq6500
sq6500_358             24.00000        4.166667E-02  sq6500
sq6500_359             25.00000        4.000000E-02  sq6500
sq6500_360             24.00000        4.166667E-02  sq6500
sq6500_361             24.00000        4.166667E-02  sq6500
sq6500_362             23.00000        4.347826E-02  sq6500
sq6500_363             22.00000        4.545455E-02  sq6500
sq6500_364             22.00000        4.545455E-02  sq6500
sq6500_365             23.00000        4.347826E-02  sq6500
sq6500_366             23.00000        4.347826E-02  sq6500
sq6500_367             23.00000        4.347826E-02  sq6500
sq6500_368             27.00000        3.703704E-02  sq6500
sq6500_369             34.00000        2.941176E-02  sq6500
sq6500_370             26.00000        3.846154E-02  sq6500
sq6500_371             24.00000        4.166667E-02  sq6500
sq6500_372             24.00000        4.166667E-02  sq6500
sq6500_373             23.00000        4.347826E-02  sq6500
sq6500_374             22.00000        4.545455E-02  sq6500
sq6500_375             22.00000        4.545455E-02  sq6500
sq6500_376             21.00000        4.761905E-02  sq6500
sq6500_377             21.00000        4.761905E-02  sq6500
sq6500_378             22.00000        4.545455E-02  sq6500
sq6500_379             22.00000        4.545455E-02  sq6500
sq6500_380             21.00000        4.761905E-02  sq6500
sq6500_381             21.00000        4.761905E-02  sq6500
sq6500_382             20.00000        5.000000E-02  sq6500
sq6500_383             21.00000        4.761905E-02  sq6500
sq6500_384             21.00000        4.761905E-02  sq6500
sq6500_385             21.00000        4.761905E-02  sq6500
sq6500_386             21.00000        4.761905E-02  sq6500
sq6500_387             22.00000        4.545455E-02  sq6500
sq6500_388             32.00000        3.125000E-02  sq6500
sq6500_389             176.0000        5.681818E-03  sq6500
sq6500_390             66.00000        1.515152E-02  sq6500
sq6500_391             51.00000        1.960784E-02  sq6500
sq6500_392             43.00000        2.325581E-02  sq6500
sq6500_393             62.00000        1.612903E-02  sq6500
sq6500_394             54.00000        1.851852E-02  sq6500
sq6500_395             46.00000        2.173913E-02  sq6500
sq6500_396             95.00000        1.052632E-02  sq6500
sq6500_397             76.00000        1.315789E-02  sq6500
sq6500_398             50.00000        2.000000E-02  sq6500
sq6500_399             43.00000        2.325581E-02  sq6500
sq6500_400             39.00000        2.564103E-02  sq6500
sq6500_401             37.00000        2.702703E-02  sq6500
sq6500_402             34.00000        2.941176E-02  sq6500
sq6500_403             31.00000        3.225806E-02  sq6500
sq6500_404             30.00000        3.333333E-02  sq6500
sq6500_405             29.00000        3.448276E-02  sq6500
sq6500_406             29.00000        3.448276E-02  sq6500
sq6500_407             29.00000        3.448276E-02  sq6500
sq6500_408             29.00000        3.448276E-02  sq6500
sq6500_409             31.00000        3.225806E-02  sq6500
sq6500_410             47.00000        2.127660E-02  sq6500
sq6500_411             40.00000        2.500000E-02  sq6500
sq6500_412             36.00000        2.777778E-02  sq6500
sq6500_413             58.00000        1.724138E-02  sq6500
sq6500_414             47.00000        2.127660E-02  sq6500
sq6500_415             41.00000        2.439024E-02  sq6500
sq6500_416             38.00000        2.631579E-02  sq6500
sq6500_417             36.00000        2.777778E-02  sq6500
sq6500_418             45.00000        2.222222E-02  sq6500
sq6500_419             43.00000        2.325581E-02  sq6500
sq6500_420             38.00000        2.631579E-02  sq6500
sq6500_421             36.00000        2.777778E-02  sq6500
sq6500_422             35.00000        2.857143E-02  sq6500
sq6500_423             33.00000        3.030303E-02  sq6500
sq6500_424             36.00000        2.777778E-02  sq6500
sq6500_425             79.00000        1.265823E-02  sq6500
sq6500_426             50.00000        2.000000E-02  sq6500
sq6500_427             42.00000        2.380952E-02  sq6500
sq6500_428             39.00000        2.564103E-02  sq6500
sq6500_429             36.00000        2.777778E-02  sq6500
sq6500_430             34.00000        2.941176E-02  sq6500
sq6500_431             33.00000        3.030303E-02  sq6500
sq6500_432             33.00000        3.030303E-02  sq6500
sq6500_433             41.00000        2.439024E-02  sq6500
sq6500_434             42.00000        2.380952E-02  sq6500
sq6500_435             40.00000        2.500000E-02  sq6500
sq6500_436             38.00000        2.631579E-02  sq6500
sq6500_437             47.00000        2.127660E-02  sq6500
sq6500_438             50.00000        2.000000E-02  sq6500
sq6500_439             44.00000        2.272727E-02  sq6500
sq6500_440             40.00000        2.500000E-02  sq6500
sq6500_441             38.00000        2.631579E-02  sq6500
sq6500_442             37.00000        2.702703E-02  sq6500
sq6500_443             35.00000        2.857143E-02  sq6500
sq6500_444             34.00000        2.941176E-02  sq6500
sq6500_445             35.00000        2.857143E-02  sq6500
sq6500_446             35.00000        2.857143E-02  sq6500
sq6500_447             35.00000        2.857143E-02  sq6500
sq6500_448             35.00000        2.857143E-02  sq6500
sq6500_449             35.00000        2.857143E-02  sq6500
sq6500_450             34.00000        2.941176E-02  sq6500
sq6500_451             34.00000        2.941176E-02  sq6500
sq6500_452             34.00000        2.941176E-02  sq6500
sq6500_453             34.00000        2.941176E-02  sq6500
sq6500_454             33.00000        3.030303E-02  sq6500
sq6500_455             33.00000        3.030303E-02  sq6500
sq6500_456             33.00000        3.030303E-02  sq6500
sq6500_457             32.00000        3.125000E-02  sq6500
sq6500_458             32.00000        3.125000E-02  sq6500
sq6500_459             32.00000        3.125000E-02  sq6500
sq6500_460             32.00000        3.125000E-02  sq6500
sq6500_461             31.00000        3.225806E-02  sq6500
sq6500_462             31.00000        3.225806E-02  sq6500
sq6500_463             31.00000        3.225806E-02  sq6500
sq6500_464             32.00000        3.125000E-02  sq6500
sq6500_465             37.00000        2.702703E-02  sq6500
sq6500_466             34.00000        2.941176E-02  sq6500
sq6500_467             32.00000        3.125000E-02  sq6500
sq6500_468             34.00000        2.941176E-02  sq6500
sq6500_469             36.00000        2.777778E-02  sq6500
sq6500_470             34.00000        2.941176E-02  sq6500
sq6500_471             31.00000        3.225806E-02  sq6500
sq6500_472             31.00000        3.225806E-02  sq6500
sq6500_473             30.00000        3.333333E-02  sq6500
sq6500_474             30.00000        3.333333E-02  sq6500
sq6500_475             29.00000        3.448276E-02  sq6500
sq6500_476             28.00000        3.571429E-02  sq6500