pcf
* control data
restart estimation
       6    7955       4       0       4 nparsec=0 nequation=0
     1     1   single   point   1   0   0
10.0   2.0    0.3    0.03    10  999
5.0   5.0   1.0e-3
0.1  noaui
30   .005  4   4  .005   4
1    1    1
* parameter groups
prcp         relative      1.00000E-02   1.00000E-05  switch       2.0000      outside_pts
evap         relative      1.00000E-02   1.00000E-05  switch       2.0000      outside_pts
soilzone     relative      1.00000E-02   1.00000E-05  switch       2.0000      outside_pts
ssres        relative      1.00000E-02   1.00000E-05  switch       2.0000      outside_pts
* parameter data
jhcoef_fac   log    factor        1.0000       0.75000        1.5000      evap            1.0000        0.0000        1
rnadj_fac    log    factor        1.0000       0.75000        1.5000      prcp            1.0000        0.0000        1
snwadj_fac   log    factor        1.0000       0.75000        1.5000      prcp            1.0000        0.0000        1
pfd_fac      log    factor        1.0000       0.75000        1.5000      soilzone        1.0000        0.0000        1
s2gw_fac     log    factor        1.0000       0.75000        1.5000      ssres           1.0000        0.0000        1
s2gwe_fac    log    factor        1.0000       0.75000        1.5000      ssres           1.0000        0.0000        1
* observation groups
mflow
mvol
mtime
mduration
* observation data
mflow_1                47.00000        1.808472E-02  mflow
mflow_2                30.00000        2.833239E-02  mflow
mflow_3                22.00000        3.863461E-02  mflow
mflow_4                42.00000        2.023761E-02  mflow
mflow_5                71.00000        1.197166E-02  mflow
mflow_6                38.00000        2.236783E-02  mflow
mflow_7                26.00000        3.269105E-02  mflow
mflow_8                20.00000        4.249788E-02  mflow
mflow_9                21.00000        4.047426E-02  mflow
mflow_10               200.0000        4.249979E-03  mflow
mflow_11               304.0000        2.796043E-03  mflow
mflow_12               273.0000        3.113542E-03  mflow
mflow_13               203.0000        4.187171E-03  mflow
mflow_14               121.0000        7.024735E-03  mflow
mflow_15               67.00000        1.268638E-02  mflow
mflow_16               46.00000        1.847786E-02  mflow
mflow_17               35.00000        2.428502E-02  mflow
mflow_18               59.00000        1.440654E-02  mflow
mflow_19               130.0000        6.538411E-03  mflow
mflow_20               67.00000        1.268638E-02  mflow
mflow_21               47.00000        1.808472E-02  mflow
mflow_22               43.00000        1.976698E-02  mflow
mflow_23               82.00000        1.036573E-02  mflow
mflow_24               123.0000        6.910513E-03  mflow
mflow_25               70.00000        1.214268E-02  mflow
mflow_26               57.00000        1.491202E-02  mflow
mflow_27               47.00000        1.808472E-02  mflow
mflow_28               71.00000        1.197166E-02  mflow
mflow_29               77.00000        1.103882E-02  mflow
mflow_30               54.00000        1.574045E-02  mflow
mflow_31               47.00000        1.808472E-02  mflow
mflow_32               41.00000        2.073120E-02  mflow
mflow_33               38.00000        2.236783E-02  mflow
mflow_34               37.00000        2.297235E-02  mflow
mflow_35               35.00000        2.428502E-02  mflow
mflow_36               50.00000        1.699966E-02  mflow
mflow_37               172.0000        4.941832E-03  mflow
mflow_38               88.00000        9.658981E-03  mflow
mflow_39               89.00000        9.550454E-03  mflow
mflow_40               70.00000        1.214268E-02  mflow
mflow_41               219.0000        3.881261E-03  mflow
mflow_42               157.0000        5.413978E-03  mflow
mflow_43               107.0000        7.943851E-03  mflow
mflow_44               89.00000        9.550454E-03  mflow
mflow_45               76.00000        1.118406E-02  mflow
mflow_46               128.0000        6.640573E-03  mflow
mflow_47               134.0000        6.343236E-03  mflow
mflow_48               206.0000        4.126194E-03  mflow
mflow_49               114.0000        7.456075E-03  mflow
mflow_50               81.00000        1.049370E-02  mflow
mflow_51               72.00000        1.180539E-02  mflow
mflow_52               69.00000        1.231866E-02  mflow
mflow_53               70.00000        1.214268E-02  mflow
mflow_54               229.0000        3.711774E-03  mflow
mflow_55               120.0000        7.083274E-03  mflow
mflow_56               103.0000        8.252347E-03  mflow
mflow_57               86.00000        9.883606E-03  mflow
mflow_58               88.00000        9.658981E-03  mflow
mflow_59               84.00000        1.011893E-02  mflow
mflow_60               66.00000        1.287859E-02  mflow
mflow_61               55.00000        1.545426E-02  mflow
mflow_62               53.00000        1.603743E-02  mflow
mflow_63               50.00000        1.699966E-02  mflow
mflow_64               49.00000        1.734658E-02  mflow
mflow_65               632.0000        1.344935E-03  mflow
mflow_66               213.0000        3.990592E-03  mflow
mflow_67               137.0000        6.204334E-03  mflow
mflow_68               107.0000        7.943851E-03  mflow
mflow_69               92.00000        9.239030E-03  mflow
mflow_70               84.00000        1.011893E-02  mflow
mflow_71               127.0000        6.692861E-03  mflow
mflow_72               101.0000        8.415758E-03  mflow
mflow_73               83.00000        1.024084E-02  mflow
mflow_74               193.0000        4.404122E-03  mflow
mflow_75               113.0000        7.522057E-03  mflow
mflow_76               86.00000        9.883606E-03  mflow
mflow_77               278.0000        3.057543E-03  mflow
mflow_78               163.0000        5.214692E-03  mflow
mflow_79               342.0000        2.485373E-03  mflow
mflow_80               394.0000        2.157355E-03  mflow
mflow_81               158.0000        5.379713E-03  mflow
mflow_82               129.0000        6.589096E-03  mflow
mflow_83               196.0000        4.336713E-03  mflow
mflow_84               730.0000        1.164382E-03  mflow
mflow_85               309.0000        2.750800E-03  mflow
mflow_86               185.0000        4.594570E-03  mflow
mflow_87               150.0000        5.666629E-03  mflow
mflow_88               130.0000        6.538411E-03  mflow
mflow_89               125.0000        6.799946E-03  mflow
mflow_90               740.0000        1.148647E-03  mflow
mflow_91               2170.000        3.917049E-04  mflow
mflow_92               652.0000        1.303679E-03  mflow
mflow_93               284.0000        2.992947E-03  mflow
mflow_94               204.0000        4.166646E-03  mflow
mflow_95               161.0000        5.279470E-03  mflow
mflow_96               120.0000        7.083274E-03  mflow
mflow_97               110.0000        7.727202E-03  mflow
mflow_98               100.0000        8.499915E-03  mflow
mflow_99               90.00000        9.444340E-03  mflow
mflow_100              70.00000        1.214268E-02  mflow
mflow_101              85.00000        9.999882E-03  mflow
mflow_102              70.00000        1.214268E-02  mflow
mflow_103              55.00000        1.545426E-02  mflow
mflow_104              75.00000        1.133318E-02  mflow
mflow_105              65.00000        1.307672E-02  mflow
mflow_106              60.00000        1.416643E-02  mflow
mflow_107              55.00000        1.545426E-02  mflow
mflow_108              280.0000        3.035703E-03  mflow
mflow_109              436.0000        1.949537E-03  mflow
mflow_110              179.0000        4.748577E-03  mflow
mflow_111              146.0000        5.821878E-03  mflow
mflow_112              147.0000        5.782274E-03  mflow
mflow_113              110.0000        7.727202E-03  mflow
mflow_114              70.00000        1.214268E-02  mflow
mflow_115              65.00000        1.307672E-02  mflow
mflow_116              60.00000        1.416643E-02  mflow
mflow_117              58.00000        1.465492E-02  mflow
mflow_118              56.00000        1.517830E-02  mflow
mflow_119              54.00000        1.574045E-02  mflow
mflow_120              53.00000        1.603743E-02  mflow
mflow_121              52.00000        1.634584E-02  mflow
mflow_122              51.00000        1.666634E-02  mflow
mflow_123              50.00000        1.699966E-02  mflow
mflow_124              49.00000        1.734658E-02  mflow
mflow_125              48.00000        1.770796E-02  mflow
mflow_126              48.00000        1.770796E-02  mflow
mflow_127              125.0000        6.799946E-03  mflow
mflow_128              580.0000        1.465515E-03  mflow
mflow_129              427.0000        1.990628E-03  mflow
mflow_130              550.0000        1.545452E-03  mflow
mflow_131              296.0000        2.871612E-03  mflow
mflow_132              217.0000        3.917033E-03  mflow
mflow_133              169.0000        5.029556E-03  mflow
mflow_134              110.0000        7.727202E-03  mflow
mflow_135              80.00000        1.062487E-02  mflow
mflow_136              70.00000        1.214268E-02  mflow
mflow_137              65.00000        1.307672E-02  mflow
mflow_138              60.00000        1.416643E-02  mflow
mflow_139              55.00000        1.545426E-02  mflow
mflow_140              53.00000        1.603743E-02  mflow
mflow_141              50.00000        1.699966E-02  mflow
mflow_142              470.0000        1.808507E-03  mflow
mflow_143              586.0000        1.450509E-03  mflow
mflow_144              228.0000        3.728054E-03  mflow
mflow_145              211.0000        4.028417E-03  mflow
mflow_146              110.0000        7.727202E-03  mflow
mflow_147              96.00000        8.854074E-03  mflow
mflow_148              90.00000        9.444340E-03  mflow
mflow_149              80.00000        1.062487E-02  mflow
mflow_150              75.00000        1.133318E-02  mflow
mflow_151              70.00000        1.214268E-02  mflow
mflow_152              164.0000        5.182895E-03  mflow
mflow_153              653.0000        1.301683E-03  mflow
mflow_154              866.0000        9.815231E-04  mflow
mflow_155              355.0000        2.394359E-03  mflow
mflow_156              271.0000        3.136520E-03  mflow
mflow_157              463.0000        1.835849E-03  mflow
mflow_158              911.0000        9.330396E-04  mflow
mflow_159              263.0000        3.231927E-03  mflow
mflow_160              187.0000        4.545430E-03  mflow
mflow_161              184.0000        4.619540E-03  mflow
mflow_162              137.0000        6.204334E-03  mflow
mflow_163              109.0000        7.798094E-03  mflow
mflow_164              105.0000        8.095161E-03  mflow
mflow_165              103.0000        8.252347E-03  mflow
mflow_166              101.0000        8.415758E-03  mflow
mflow_167              119.0000        7.142797E-03  mflow
mflow_168              166.0000        5.120451E-03  mflow
mflow_169              411.0000        2.068121E-03  mflow
mflow_170              345.0000        2.463761E-03  mflow
mflow_171              255.0000        3.333320E-03  mflow
mflow_172              213.0000        3.990592E-03  mflow
mflow_173              210.0000        4.047600E-03  mflow
mflow_174              288.0000        2.951379E-03  mflow
mflow_175              492.0000        1.727639E-03  mflow
mflow_176              295.0000        2.881346E-03  mflow
mflow_177              192.0000        4.427060E-03  mflow
mflow_178              531.0000        1.600750E-03  mflow
mflow_179              705.0000        1.205672E-03  mflow
mflow_180              263.0000        3.231927E-03  mflow
mflow_181              176.0000        4.829518E-03  mflow
mflow_182              136.0000        6.249954E-03  mflow
mflow_183              128.0000        6.640573E-03  mflow
mflow_184              131.0000        6.488500E-03  mflow
mflow_185              115.0000        7.391240E-03  mflow
mflow_186              111.0000        7.657589E-03  mflow
mflow_187              99.00000        8.585772E-03  mflow
mflow_188              96.00000        8.854074E-03  mflow
mflow_189              89.00000        9.550454E-03  mflow
mflow_190              83.00000        1.024084E-02  mflow
mflow_191              111.0000        7.657589E-03  mflow
mflow_192              151.0000        5.629102E-03  mflow
mflow_193              113.0000        7.522057E-03  mflow
mflow_194              86.00000        9.883606E-03  mflow
mflow_195              77.00000        1.103882E-02  mflow
mflow_196              74.00000        1.148633E-02  mflow
mflow_197              166.0000        5.120451E-03  mflow
mflow_198              166.0000        5.120451E-03  mflow
mflow_199              98.00000        8.673381E-03  mflow
mflow_200              85.00000        9.999882E-03  mflow
mflow_201              81.00000        1.049370E-02  mflow
mflow_202              987.0000        8.611947E-04  mflow
mflow_203              619.0000        1.373180E-03  mflow
mflow_204              1480.000        5.743239E-04  mflow
mflow_205              636.0000        1.336476E-03  mflow
mflow_206              464.0000        1.831893E-03  mflow
mflow_207              368.0000        2.309776E-03  mflow
mflow_208              214.0000        3.971944E-03  mflow
mflow_209              163.0000        5.214692E-03  mflow
mflow_210              138.0000        6.159376E-03  mflow
mflow_211              138.0000        6.159376E-03  mflow
mflow_212              119.0000        7.142797E-03  mflow
mflow_213              98.00000        8.673381E-03  mflow
mflow_214              94.00000        9.042457E-03  mflow
mflow_215              88.00000        9.658981E-03  mflow
mflow_216              82.00000        1.036573E-02  mflow
mflow_217              75.00000        1.133318E-02  mflow
mflow_218              69.00000        1.231866E-02  mflow
mflow_219              60.00000        1.416643E-02  mflow
mflow_220              54.00000        1.574045E-02  mflow
mflow_221              53.00000        1.603743E-02  mflow
mflow_222              59.00000        1.440654E-02  mflow
mflow_223              52.00000        1.634584E-02  mflow
mflow_224              48.00000        1.770796E-02  mflow
mflow_225              48.00000        1.770796E-02  mflow
mflow_226              58.00000        1.465492E-02  mflow
mflow_227              50.00000        1.699966E-02  mflow
mflow_228              40.00000        2.124947E-02  mflow
mflow_229              52.00000        1.634584E-02  mflow
mflow_230              73.00000        1.164368E-02  mflow
mflow_231              48.00000        1.770796E-02  mflow
mflow_232              41.00000        2.073120E-02  mflow
mflow_233              37.00000        2.297235E-02  mflow
mflow_234              35.00000        2.428502E-02  mflow
mflow_235              33.00000        2.575680E-02  mflow
mflow_236              30.00000        2.833239E-02  mflow
mflow_237              36.00000        2.361046E-02  mflow
mflow_238              33.00000        2.575680E-02  mflow
mflow_239              65.00000        1.307672E-02  mflow
mflow_240              44.00000        1.931774E-02  mflow
mflow_241              34.00000        2.499926E-02  mflow
mflow_242              32.00000        2.656167E-02  mflow
mflow_243              49.00000        1.734658E-02  mflow
mflow_244              37.00000        2.297235E-02  mflow
mflow_245              29.00000        2.930933E-02  mflow
mflow_246              26.00000        3.269105E-02  mflow
mflow_247              24.00000        3.541519E-02  mflow
mflow_248              23.00000        3.695492E-02  mflow
mflow_249              22.00000        3.863461E-02  mflow
mflow_250              21.00000        4.047426E-02  mflow
mflow_251              21.00000        4.047426E-02  mflow
mflow_252              20.00000        4.249788E-02  mflow
mflow_253              18.00000        4.721960E-02  mflow
mflow_254              20.00000        4.249788E-02  mflow
mflow_255              25.00000        3.399864E-02  mflow
mflow_256              24.00000        3.541519E-02  mflow
mflow_257              20.00000        4.249788E-02  mflow
mflow_258              18.00000        4.721960E-02  mflow
mflow_259              22.00000        3.863461E-02  mflow
mflow_260              24.00000        3.541519E-02  mflow
mflow_261              23.00000        3.695492E-02  mflow
mflow_262              20.00000        4.249788E-02  mflow
mflow_263              18.00000        4.721960E-02  mflow
mflow_264              16.00000        5.312168E-02  mflow
mflow_265              14.00000        6.070995E-02  mflow
mflow_266              14.00000        6.070995E-02  mflow
mflow_267              12.00000        7.082743E-02  mflow
mflow_268              8.800000        9.657993E-02  mflow
mflow_269              8.300000        0.102397      mflow
mflow_270              8.300000        0.102397      mflow
mflow_271              8.400000        0.101178      mflow
mflow_272              9.500000        8.946427E-02  mflow
mflow_273              10.00000        8.499150E-02  mflow
mflow_274              11.00000        7.726570E-02  mflow
mflow_275              11.00000        7.726570E-02  mflow
mflow_276              11.00000        7.726570E-02  mflow
mflow_277              13.00000        6.537959E-02  mflow
mflow_278              21.00000        4.047426E-02  mflow
mflow_279              14.00000        6.070995E-02  mflow
mflow_280              31.00000        2.741847E-02  mflow
mflow_281              30.00000        2.833239E-02  mflow
mflow_282              19.00000        4.473449E-02  mflow
mflow_283              14.00000        6.070995E-02  mflow
mflow_284              12.00000        7.082743E-02  mflow
mflow_285              10.00000        8.499150E-02  mflow
mflow_286              15.00000        5.666289E-02  mflow
mflow_287              24.00000        3.541519E-02  mflow
mflow_288              14.00000        6.070995E-02  mflow
mflow_289              11.00000        7.726570E-02  mflow
mflow_290              9.300000        9.138802E-02  mflow
mflow_291              8.300000        0.102397      mflow
mflow_292              8.300000        0.102397      mflow
mflow_293              8.300000        0.102397      mflow
mflow_294              8.000000        0.106237      mflow
mflow_295              6.200000        0.137075      mflow
mflow_296              7.200000        0.118039      mflow
mflow_297              6.100000        0.139321      mflow
mflow_298              6.100000        0.139321      mflow
mflow_299              6.100000        0.139321      mflow
mflow_300              5.200000        0.163430      mflow
mflow_301              5.200000        0.163430      mflow
mflow_302              5.200000        0.163430      mflow
mflow_303              6.300000        0.134899      mflow
mflow_304              8.300000        0.102397      mflow
mflow_305              7.000000        0.121411      mflow
mflow_306              6.100000        0.139321      mflow
mflow_307              8.400000        0.101178      mflow
mflow_308              11.00000        7.726570E-02  mflow
mflow_309              12.00000        7.082743E-02  mflow
mflow_310              9.500000        8.946427E-02  mflow
mflow_311              7.000000        0.121411      mflow
mflow_312              6.100000        0.139321      mflow
mflow_313              10.00000        8.499150E-02  mflow
mflow_314              14.00000        6.070995E-02  mflow
mflow_315              14.00000        6.070995E-02  mflow
mflow_316              10.00000        8.499150E-02  mflow
mflow_317              7.300000        0.116422      mflow
mflow_318              7.000000        0.121411      mflow
mflow_319              6.100000        0.139321      mflow
mflow_320              6.100000        0.139321      mflow
mflow_321              5.600000        0.151759      mflow
mflow_322              4.400000        0.193138      mflow
mflow_323              4.400000        0.193138      mflow
mflow_324              5.900000        0.144043      mflow
mflow_325              12.00000        7.082743E-02  mflow
mflow_326              8.600000        9.882571E-02  mflow
mflow_327              6.800000        0.124982      mflow
mflow_328              5.200000        0.163430      mflow
mflow_329              4.700000        0.180813      mflow
mflow_330              4.400000        0.193138      mflow
mflow_331              4.400000        0.193138      mflow
mflow_332              4.400000        0.193138      mflow
mflow_333              4.400000        0.193138      mflow
mflow_334              4.400000        0.193138      mflow
mflow_335              4.400000        0.193138      mflow
mflow_336              5.500000        0.154517      mflow
mflow_337              5.200000        0.163430      mflow
mflow_338              4.900000        0.173434      mflow
mflow_339              10.00000        8.499150E-02  mflow
mflow_340              14.00000        6.070995E-02  mflow
mflow_341              6.900000        0.123171      mflow
mflow_342              5.300000        0.160347      mflow
mflow_343              5.200000        0.163430      mflow
mflow_344              4.800000        0.177046      mflow
mflow_345              5.600000        0.151759      mflow
mflow_346              5.200000        0.163430      mflow
mflow_347              5.200000        0.163430      mflow
mflow_348              4.900000        0.173434      mflow
mflow_349              5.000000        0.169966      mflow
mflow_350              5.500000        0.154517      mflow
mflow_351              5.200000        0.163430      mflow
mflow_352              5.200000        0.163430      mflow
mflow_353              5.700000        0.149097      mflow
mflow_354              6.100000        0.139321      mflow
mflow_355              6.100000        0.139321      mflow
mflow_356              6.100000        0.139321      mflow
mflow_357              6.100000        0.139321      mflow
mflow_358              6.100000        0.139321      mflow
mflow_359              6.100000        0.139321      mflow
mflow_360              12.00000        7.082743E-02  mflow
mflow_361              15.00000        5.666289E-02  mflow
mflow_362              10.00000        8.499150E-02  mflow
mflow_363              7.500000        0.113318      mflow
mflow_364              6.100000        0.139321      mflow
mflow_365              5.300000        0.160347      mflow
mflow_366              6.000000        0.141643      mflow
mflow_367              7.100000        0.119701      mflow
mflow_368              7.100000        0.119701      mflow
mflow_369              7.100000        0.119701      mflow
mflow_370              7.300000        0.116422      mflow
mflow_371              7.100000        0.119701      mflow
mflow_372              7.100000        0.119701      mflow
mflow_373              7.100000        0.119701      mflow
mflow_374              7.100000        0.119701      mflow
mflow_375              12.00000        7.082743E-02  mflow
mflow_376              29.00000        2.930933E-02  mflow
mflow_377              17.00000        4.999706E-02  mflow
mflow_378              16.00000        5.312168E-02  mflow
mflow_379              16.00000        5.312168E-02  mflow
mflow_380              14.00000        6.070995E-02  mflow
mflow_381              14.00000        6.070995E-02  mflow
mflow_382              14.00000        6.070995E-02  mflow
mflow_383              12.00000        7.082743E-02  mflow
mflow_384              11.00000        7.726570E-02  mflow
mflow_385              11.00000        7.726570E-02  mflow
mflow_386              11.00000        7.726570E-02  mflow
mflow_387              10.00000        8.499150E-02  mflow
mflow_388              9.500000        8.946427E-02  mflow
mflow_389              9.500000        8.946427E-02  mflow
mflow_390              9.500000        8.946427E-02  mflow
mflow_391              9.500000        8.946427E-02  mflow
mflow_392              9.500000        8.946427E-02  mflow
mflow_393              9.500000        8.946427E-02  mflow
mflow_394              9.500000        8.946427E-02  mflow
mflow_395              9.500000        8.946427E-02  mflow
mflow_396              9.500000        8.946427E-02  mflow
mflow_397              9.500000        8.946427E-02  mflow
mflow_398              8.700000        9.768992E-02  mflow
mflow_399              8.300000        0.102397      mflow
mflow_400              8.300000        0.102397      mflow
mflow_401              8.300000        0.102397      mflow
mflow_402              8.300000        0.102397      mflow
mflow_403              8.300000        0.102397      mflow
mflow_404              8.300000        0.102397      mflow
mflow_405              8.300000        0.102397      mflow
mflow_406              7.300000        0.116422      mflow
mflow_407              9.800000        8.672584E-02  mflow
mflow_408              12.00000        7.082743E-02  mflow
mflow_409              12.00000        7.082743E-02  mflow
mflow_410              15.00000        5.666289E-02  mflow
mflow_411              21.00000        4.047426E-02  mflow
mflow_412              21.00000        4.047426E-02  mflow
mflow_413              20.00000        4.249788E-02  mflow
mflow_414              16.00000        5.312168E-02  mflow
mflow_415              14.00000        6.070995E-02  mflow
mflow_416              13.00000        6.537959E-02  mflow
mflow_417              13.00000        6.537959E-02  mflow
mflow_418              18.00000        4.721960E-02  mflow
mflow_419              18.00000        4.721960E-02  mflow
mflow_420              18.00000        4.721960E-02  mflow
mflow_421              18.00000        4.721960E-02  mflow
mflow_422              18.00000        4.721960E-02  mflow
mflow_423              17.00000        4.999706E-02  mflow
mflow_424              14.00000        6.070995E-02  mflow
mflow_425              63.00000        1.349185E-02  mflow
mflow_426              63.00000        1.349185E-02  mflow
mflow_427              40.00000        2.124947E-02  mflow
mflow_428              30.00000        2.833239E-02  mflow
mflow_429              71.00000        1.197166E-02  mflow
mflow_430              78.00000        1.089730E-02  mflow
mflow_431              40.00000        2.124947E-02  mflow
mflow_432              35.00000        2.428502E-02  mflow
mflow_433              43.00000        1.976698E-02  mflow
mflow_434              110.0000        7.727202E-03  mflow
mflow_435              96.00000        8.854074E-03  mflow
mflow_436              64.00000        1.328104E-02  mflow
mflow_437              44.00000        1.931774E-02  mflow
mflow_438              36.00000        2.361046E-02  mflow
mflow_439              61.00000        1.393420E-02  mflow
mflow_440              76.00000        1.118406E-02  mflow
mflow_441              80.00000        1.062487E-02  mflow
mflow_442              59.00000        1.440654E-02  mflow
mflow_443              45.00000        1.888847E-02  mflow
mflow_444              35.00000        2.428502E-02  mflow
mflow_445              30.00000        2.833239E-02  mflow
mflow_446              28.00000        3.035606E-02  mflow
mflow_447              40.00000        2.124947E-02  mflow
mflow_448              50.00000        1.699966E-02  mflow
mflow_449              55.00000        1.545426E-02  mflow
mflow_450              42.00000        2.023761E-02  mflow
mflow_451              30.00000        2.833239E-02  mflow
mflow_452              26.00000        3.269105E-02  mflow
mflow_453              24.00000        3.541519E-02  mflow
mflow_454              22.00000        3.863461E-02  mflow
mflow_455              140.0000        6.071385E-03  mflow
mflow_456              309.0000        2.750800E-03  mflow
mflow_457              90.00000        9.444340E-03  mflow
mflow_458              65.00000        1.307672E-02  mflow
mflow_459              60.00000        1.416643E-02  mflow
mflow_460              95.00000        8.947274E-03  mflow
mflow_461              188.0000        4.521253E-03  mflow
mflow_462              188.0000        4.521253E-03  mflow
mflow_463              124.0000        6.854783E-03  mflow
mflow_464              85.00000        9.999882E-03  mflow
mflow_465              60.00000        1.416643E-02  mflow
mflow_466              64.00000        1.328104E-02  mflow
mflow_467              99.00000        8.585772E-03  mflow
mflow_468              74.00000        1.148633E-02  mflow
mflow_469              67.00000        1.268638E-02  mflow
mflow_470              74.00000        1.148633E-02  mflow
mflow_471              154.0000        5.519445E-03  mflow
mflow_472              87.00000        9.770003E-03  mflow
mflow_473              62.00000        1.370946E-02  mflow
mflow_474              50.00000        1.699966E-02  mflow
mflow_475              46.00000        1.847786E-02  mflow
mflow_476              44.00000        1.931774E-02  mflow
mflow_477              38.00000        2.236783E-02  mflow
mflow_478              35.00000        2.428502E-02  mflow
mflow_479              35.00000        2.428502E-02  mflow
mflow_480              130.0000        6.538411E-03  mflow
mflow_481              180.0000        4.722196E-03  mflow
mflow_482              150.0000        5.666629E-03  mflow
mflow_483              110.0000        7.727202E-03  mflow
mflow_484              90.00000        9.444340E-03  mflow